PARP1_ref_0
                    3D
 Schrodinger Suite 2025-3.
 37 39  0  0  1  0            999 V2000
   28.9623   65.2261    9.6365 C   0  0  0  0  0  0
   28.1737   65.9918   10.4616 C   0  0  0  0  0  0
   28.3447   64.5890    8.5929 C   0  0  0  0  0  0
   26.2057   65.5179    9.2621 C   0  0  0  0  0  0
   26.8032   66.1730   10.3248 C   0  0  0  0  0  0
   26.9821   64.7287    8.4015 C   0  0  0  0  0  0
   24.8371   65.4426    8.7753 C   0  0  0  0  0  0
   26.0876   67.0167   11.2769 C   0  0  0  0  0  0
   26.0808   64.1649    7.3785 C   0  0  0  0  0  0
   23.5004   64.7666    5.5151 C   0  0  0  0  0  0
   23.2494   62.8738    7.0131 C   0  0  0  0  0  0
   23.7992   63.5849    4.5864 C   0  0  0  0  0  0
   22.2022   62.4561    5.9968 C   0  0  0  0  0  0
   23.5091   64.3686    6.9353 C   0  0  0  0  0  0
   22.8836   62.5201    4.7129 N   0  3  0  0  0  0
   24.7557   64.6147    7.6214 N   0  0  0  0  0  0
   24.7505   67.3467   11.3514 N   0  0  0  0  0  0
   23.8757   66.0366    9.3174 O   0  0  0  0  0  0
   26.7713   67.5709   12.2273 O   0  0  0  0  0  0
   30.0345   65.1471    9.8293 H   0  0  0  0  0  0
   28.6409   66.5129   11.3050 H   0  0  0  0  0  0
   28.9769   63.9863    7.9468 H   0  0  0  0  0  0
   26.1442   63.0553    7.4620 H   0  0  0  0  0  0
   26.4506   64.4406    6.3426 H   0  0  0  0  0  0
   24.2629   65.5426    5.2608 H   0  0  0  0  0  0
   22.5435   65.2273    5.2000 H   0  0  0  0  0  0
   22.8200   62.6594    7.9830 H   0  0  0  0  0  0
   24.1505   62.3431    6.7297 H   0  0  0  0  0  0
   23.8450   63.9244    3.5329 H   0  0  0  0  0  0
   24.8188   63.2633    4.9420 H   0  0  0  0  0  0
   21.8461   61.4366    6.2382 H   0  0  0  0  0  0
   21.3979   63.2033    6.0590 H   0  0  0  0  0  0
   22.6734   64.8994    7.4265 H   0  0  0  0  0  0
   22.1302   62.5520    3.9904 H   0  0  0  0  0  0
   23.3203   61.5466    4.6505 H   0  0  0  0  0  0
   24.1411   66.7109   11.9254 H   0  0  0  0  0  0
   24.3692   68.2066   10.8555 H   0  0  0  0  0  0
  1  2  2  0  0  0
  1  3  1  0  0  0
  1 20  1  0  0  0
  2  5  1  0  0  0
  2 21  1  0  0  0
  3  6  2  0  0  0
  3 22  1  0  0  0
  4  5  2  0  0  0
  4  6  1  0  0  0
  4  7  1  0  0  0
  5  8  1  0  0  0
  6  9  1  0  0  0
  7 16  1  0  0  0
  7 18  2  0  0  0
  8 17  1  0  0  0
  8 19  2  0  0  0
  9 16  1  0  0  0
  9 23  1  0  0  0
  9 24  1  0  0  0
 10 12  1  0  0  0
 10 14  1  0  0  0
 10 25  1  0  0  0
 10 26  1  0  0  0
 11 13  1  0  0  0
 11 14  1  0  0  0
 11 27  1  0  0  0
 11 28  1  0  0  0
 12 15  1  0  0  0
 12 29  1  0  0  0
 12 30  1  0  0  0
 13 15  1  0  0  0
 13 31  1  0  0  0
 13 32  1  0  0  0
 14 16  1  0  0  0
 14 33  1  0  0  0
 15 34  1  0  0  0
 15 35  1  0  0  0
 17 36  1  0  0  0
 17 37  1  0  0  0
M  CHG  1  15   1
M  END
$$$$
PARP1_ref_1
                    3D
 Schrodinger Suite 2025-3.
 36 39  0  0  1  0            999 V2000
   25.0155   67.5190   10.5878 N   0  0  0  0  0  0
   26.3587   67.4981   10.9419 C   0  0  0  0  0  0
   26.7710   68.2113   11.8634 O   0  0  0  0  0  0
   27.3601   66.6892   10.3098 C   0  0  0  0  0  0
   28.6849   66.6359   10.6222 C   0  0  0  0  0  0
   29.5587   65.8131    9.9384 C   0  0  0  0  0  0
   29.1319   65.0005    8.9004 C   0  0  0  0  0  0
   27.7718   65.0523    8.5760 C   0  0  0  0  0  0
   27.0841   64.3875    7.6314 N   0  0  0  0  0  0
   25.7977   64.7570    7.6870 C   0  0  0  0  0  0
   24.7292   64.2618    6.8268 C   0  0  0  0  0  0
   23.4121   64.6187    6.8599 C   0  0  0  0  0  0
   22.7862   63.9058    5.8778 C   0  0  0  0  0  0
   23.7548   63.1412    5.2859 C   0  0  0  0  0  0
   24.8839   63.3924    5.8874 O   0  0  0  0  0  0
   23.5091   62.2028    4.1562 C   0  0  0  0  0  0
   22.2564   62.6122    3.5908 N   0  3  0  0  0  0
   21.1971   62.6885    4.5907 C   0  0  0  0  0  0
   21.3511   63.8904    5.4553 C   0  0  0  0  0  0
   25.7125   65.6623    8.6860 N   0  0  0  0  0  0
   26.9109   65.8715    9.2596 C   0  0  0  0  0  0
   30.8726   65.7825   10.2735 F   0  0  0  0  0  0
   24.4783   68.4034   10.4166 H   0  0  0  0  0  0
   24.4342   66.6359   10.4647 H   0  0  0  0  0  0
   29.0333   67.2664   11.4324 H   0  0  0  0  0  0
   29.7675   64.3487    8.3426 H   0  0  0  0  0  0
   27.4559   63.6921    6.9505 H   0  0  0  0  0  0
   22.9308   65.3254    7.5235 H   0  0  0  0  0  0
   24.2668   62.3427    3.3571 H   0  0  0  0  0  0
   23.5332   61.1427    4.4644 H   0  0  0  0  0  0
   22.3819   63.6005    3.2528 H   0  0  0  0  0  0
   21.9130   61.9765    2.8496 H   0  0  0  0  0  0
   21.2449   61.8068    5.2566 H   0  0  0  0  0  0
   20.2374   62.7290    4.0058 H   0  0  0  0  0  0
   20.6781   63.7644    6.3510 H   0  0  0  0  0  0
   21.0490   64.8020    4.9359 H   0  0  0  0  0  0
  1  2  1  0  0  0
  1 23  1  0  0  0
  1 24  1  0  0  0
  2  3  2  0  0  0
  2  4  1  0  0  0
  4  5  2  0  0  0
  4 21  1  0  0  0
  5  6  1  0  0  0
  5 25  1  0  0  0
  6  7  2  0  0  0
  6 22  1  0  0  0
  7  8  1  0  0  0
  7 26  1  0  0  0
  8  9  1  0  0  0
  8 21  2  0  0  0
  9 10  1  0  0  0
  9 27  1  0  0  0
 10 11  1  0  0  0
 10 20  2  0  0  0
 11 12  2  0  0  0
 11 15  1  0  0  0
 12 13  1  0  0  0
 12 28  1  0  0  0
 13 14  2  0  0  0
 13 19  1  0  0  0
 14 15  1  0  0  0
 14 16  1  0  0  0
 16 17  1  0  0  0
 16 29  1  0  0  0
 16 30  1  0  0  0
 17 18  1  0  0  0
 17 31  1  0  0  0
 17 32  1  0  0  0
 18 19  1  0  0  0
 18 33  1  0  0  0
 18 34  1  0  0  0
 19 35  1  0  0  0
 19 36  1  0  0  0
 20 21  1  0  0  0
M  CHG  1  17   1
M  END
$$$$
