TRP1_ref_0
                    3D
 Schrodinger Suite 2025-3.
 21 22  0  0  1  0            999 V2000
   41.4203   -4.2787   30.0027 I   0  0  0  0  0  0
   42.4128   -2.4960   29.5171 C   0  0  0  0  0  0
   43.0246   -2.2823   28.2800 C   0  0  0  0  0  0
   42.4388   -1.5215   30.4866 C   0  0  0  0  0  0
   43.6161   -1.0938   28.1241 C   0  0  0  0  0  0
   43.0778   -3.1496   27.2345 C   0  0  0  0  0  0
   43.0448   -0.3054   30.3253 C   0  0  0  0  0  0
   44.2794   -1.1275   26.5020 S   0  0  0  0  0  0
   43.6484   -0.0953   29.1045 C   0  0  0  0  0  0
   43.7209   -2.7535   26.1162 C   0  0  0  0  0  0
   43.9388   -3.4532   24.8556 C   0  0  0  0  0  0
   44.0253   -2.7462   23.8087 N   0  3  0  0  0  0
   44.0353   -4.8549   24.9027 N   0  0  0  0  0  0
   43.9509   -1.7147   23.8003 H   0  0  0  0  0  0
   41.9590   -1.6887   31.4563 H   0  0  0  0  0  0
   42.6183   -4.1764   27.2463 H   0  0  0  0  0  0
   43.0422    0.4297   31.1112 H   0  0  0  0  0  0
   44.1421    0.8301   28.9035 H   0  0  0  0  0  0
   43.6005   -5.4455   25.6451 H   0  0  0  0  0  0
   44.5929   -5.3043   24.1173 H   0  0  0  0  0  0
   44.1801   -3.2316   22.9056 H   0  0  0  0  0  0
  1  2  1  0  0  0
  2  3  2  0  0  0
  2  4  1  0  0  0
  3  5  1  0  0  0
  3  6  1  0  0  0
  4  7  2  0  0  0
  4 15  1  0  0  0
  5  8  1  0  0  0
  5  9  2  0  0  0
  6 10  2  0  0  0
  6 16  1  0  0  0
  7  9  1  0  0  0
  7 17  1  0  0  0
  8 10  1  0  0  0
  9 18  1  0  0  0
 10 11  1  0  0  0
 11 12  2  0  0  0
 11 13  1  0  0  0
 12 14  1  0  0  0
 12 21  1  0  0  0
 13 19  1  0  0  0
 13 20  1  0  0  0
M  CHG  1  12   1
M  END
$$$$
TRP1_ref_1
                    3D
 Schrodinger Suite 2025-3.
 32 34  0  0  1  0            999 V2000
   42.8451    0.9285   31.7843 O   0  0  0  0  0  0
   42.4562   -0.1802   32.4008 C   0  0  0  0  0  0
   42.4355   -1.3773   31.7379 C   0  0  0  0  0  0
   42.0668   -0.1042   33.7434 C   0  0  0  0  0  0
   42.8291   -1.5451   30.3253 C   0  0  0  0  0  0
   42.0152   -2.4863   32.4595 C   0  0  0  0  0  0
   41.6544   -1.2068   34.4422 C   0  0  0  0  0  0
   43.2586   -0.6341   29.4525 N   0  0  0  0  0  0
   42.8179   -2.7170   29.6444 N   0  0  0  0  0  0
   41.6330   -2.4027   33.7826 C   0  0  0  0  0  0
   43.5169   -1.1922   28.2504 C   0  0  0  0  0  0
   43.2340   -2.5219   28.3777 C   0  0  0  0  0  0
   43.9766   -0.6206   27.0695 C   0  0  0  0  0  0
   43.4119   -3.3387   27.2845 C   0  0  0  0  0  0
   44.1387   -1.4875   25.9982 C   0  0  0  0  0  0
   43.8686   -2.8327   26.0733 C   0  0  0  0  0  0
   44.0417   -3.7301   24.9475 C   0  0  0  0  0  0
   43.8911   -3.2934   23.7596 N   0  3  0  0  0  0
   44.3765   -5.0900   25.1387 N   0  0  0  0  0  0
   43.6472   -2.3001   23.6404 H   0  0  0  0  0  0
   43.2213    1.7964   31.9982 H   0  0  0  0  0  0
   42.0940    0.8532   34.2376 H   0  0  0  0  0  0
   42.0046   -3.4207   31.9233 H   0  0  0  0  0  0
   41.3530   -1.1412   35.4858 H   0  0  0  0  0  0
   41.3073   -3.2740   34.3345 H   0  0  0  0  0  0
   44.1862    0.4262   27.0127 H   0  0  0  0  0  0
   43.1945   -4.3788   27.3712 H   0  0  0  0  0  0
   44.4956   -1.0874   25.0545 H   0  0  0  0  0  0
   44.8392   -5.3534   26.0246 H   0  0  0  0  0  0
   44.1831   -5.8208   24.4451 H   0  0  0  0  0  0
   44.0164   -3.9370   22.9814 H   0  0  0  0  0  0
   43.3850    0.3561   29.6393 H   0  0  0  0  0  0
  1  2  1  0  0  0
  1 21  1  0  0  0
  2  3  2  0  0  0
  2  4  1  0  0  0
  3  5  1  0  0  0
  3  6  1  0  0  0
  4  7  2  0  0  0
  4 22  1  0  0  0
  5  8  1  0  0  0
  5  9  2  0  0  0
  6 10  2  0  0  0
  6 23  1  0  0  0
  7 10  1  0  0  0
  7 24  1  0  0  0
  8 11  1  0  0  0
  8 32  1  0  0  0
  9 12  1  0  0  0
 10 25  1  0  0  0
 11 13  2  0  0  0
 11 12  1  0  0  0
 12 14  2  0  0  0
 13 15  1  0  0  0
 13 26  1  0  0  0
 14 16  1  0  0  0
 14 27  1  0  0  0
 15 16  2  0  0  0
 15 28  1  0  0  0
 16 17  1  0  0  0
 17 18  2  0  0  0
 17 19  1  0  0  0
 18 20  1  0  0  0
 18 31  1  0  0  0
 19 29  1  0  0  0
 19 30  1  0  0  0
M  CHG  1  18   1
M  END
$$$$
