GCKR_ref_0
                    3D
 Schrodinger Suite 2025-3.
 52 54  0  0  1  0            999 V2000
   40.4033  -22.9324  -16.9051 C   0  0  0  0  0  0
   39.4242  -21.9447  -16.5905 N   0  0  0  0  0  0
   34.8090  -18.5913  -19.8225 O   0  0  0  0  0  0
   35.8060  -19.4846  -20.5362 S   0  0  1  0  0  0
   39.2934  -21.5195  -15.2240 C   0  0  2  0  0  0
   41.4560  -22.6624  -14.7475 N   0  0  0  0  0  0
   42.5247  -21.9156  -12.4305 O   0  0  0  0  0  0
   42.8941  -22.1995  -13.8753 S   0  0  0  0  0  0
   40.6117  -21.4932  -14.6083 C   0  0  0  0  0  0
   43.9215  -18.4376  -14.4156 N   0  0  0  0  0  0
   43.8332  -23.3998  -13.7536 O   0  0  0  0  0  0
   41.7073  -22.7942  -16.1556 C   0  0  0  0  0  0
   45.3203  -17.2225  -15.8797 N   0  0  0  0  0  0
   38.3575  -22.3236  -14.4348 C   0  0  0  0  0  0
   36.5530  -18.5418  -21.5269 N   0  0  0  0  0  0
   37.5922  -22.9889  -13.7706 C   0  0  0  0  0  0
   36.6571  -23.7873  -12.9374 C   0  0  0  0  0  0
   38.5806  -21.3415  -17.5343 C   0  0  0  0  0  0
   38.9783  -21.1592  -18.8260 C   0  0  0  0  0  0
   38.1554  -20.5908  -19.7956 C   0  0  0  0  0  0
   36.8962  -20.2073  -19.4075 C   0  0  0  0  0  0
   36.4659  -20.3769  -18.1136 C   0  0  0  0  0  0
   37.3116  -20.9474  -17.1696 C   0  0  0  0  0  0
   34.9819  -20.7500  -21.4601 C   0  0  0  0  0  0
   43.6663  -20.8321  -14.5458 C   0  0  0  0  0  0
   43.3988  -19.5967  -13.9966 C   0  0  0  0  0  0
   44.7697  -18.4481  -15.4427 C   0  0  0  0  0  0
   45.0853  -19.6397  -16.0430 C   0  0  0  0  0  0
   44.5414  -20.8339  -15.6045 C   0  0  0  0  0  0
   34.2628  -21.5987  -20.6743 F   0  0  0  0  0  0
   34.1537  -20.0906  -22.3790 F   0  0  0  0  0  0
   35.9256  -21.4283  -22.1986 F   0  0  0  0  0  0
   39.9313  -23.9223  -16.6236 H   0  0  0  0  0  0
   40.6375  -22.9398  -17.9959 H   0  0  0  0  0  0
   38.9104  -20.4666  -15.1697 H   0  0  0  0  0  0
   41.2306  -20.6029  -14.8518 H   0  0  0  0  0  0
   40.4654  -21.4162  -13.4870 H   0  0  0  0  0  0
   42.2027  -21.8927  -16.5823 H   0  0  0  0  0  0
   42.3051  -23.6831  -16.4250 H   0  0  0  0  0  0
   46.1433  -16.8095  -15.4008 H   0  0  0  0  0  0
   44.8821  -16.7565  -16.6843 H   0  0  0  0  0  0
   36.7426  -17.5977  -21.1610 H   0  0  0  0  0  0
   35.8662  -23.1099  -12.5267 H   0  0  0  0  0  0
   36.2424  -24.5534  -13.6329 H   0  0  0  0  0  0
   37.1644  -24.3326  -12.1380 H   0  0  0  0  0  0
   39.9869  -21.4569  -19.1410 H   0  0  0  0  0  0
   38.5111  -20.4610  -20.8164 H   0  0  0  0  0  0
   35.4724  -20.0711  -17.8135 H   0  0  0  0  0  0
   36.9836  -21.0829  -16.1624 H   0  0  0  0  0  0
   42.7091  -19.5140  -13.1449 H   0  0  0  0  0  0
   45.7752  -19.6173  -16.8752 H   0  0  0  0  0  0
   44.7711  -21.7791  -16.0537 H   0  0  0  0  0  0
  1  2  1  0  0  0
  1 12  1  0  0  0
  1 33  1  0  0  0
  1 34  1  0  0  0
  2  5  1  0  0  0
  2 18  1  0  0  0
  3  4  2  0  0  0
  4 15  2  0  0  0
  4 21  1  0  0  0
  4 24  1  0  0  0
  5  9  1  0  0  0
  5 14  1  0  0  0
  5 35  1  0  0  0
  6  8  1  0  0  0
  6  9  1  0  0  0
  6 12  1  0  0  0
  7  8  2  0  0  0
  8 11  2  0  0  0
  8 25  1  0  0  0
  9 36  1  0  0  0
  9 37  1  0  0  0
 10 26  2  0  0  0
 10 27  1  0  0  0
 12 38  1  0  0  0
 12 39  1  0  0  0
 13 27  1  0  0  0
 13 40  1  0  0  0
 13 41  1  0  0  0
 14 16  3  0  0  0
 15 42  1  0  0  0
 16 17  1  0  0  0
 17 43  1  0  0  0
 17 44  1  0  0  0
 17 45  1  0  0  0
 18 19  2  0  0  0
 18 23  1  0  0  0
 19 20  1  0  0  0
 19 46  1  0  0  0
 20 21  2  0  0  0
 20 47  1  0  0  0
 21 22  1  0  0  0
 22 23  2  0  0  0
 22 48  1  0  0  0
 23 49  1  0  0  0
 24 30  1  0  0  0
 24 31  1  0  0  0
 24 32  1  0  0  0
 25 26  1  0  0  0
 25 29  2  0  0  0
 26 50  1  0  0  0
 27 28  2  0  0  0
 28 29  1  0  0  0
 28 51  1  0  0  0
 29 52  1  0  0  0
M  END
$$$$
GCKR_ref_1
                    3D
 Schrodinger Suite 2025-3.
 42 44  0  0  1  0            999 V2000
   38.7229  -23.7175  -20.1874 Cl  0  0  0  0  0  0
   41.5369  -22.5066  -15.8321 C   0  0  0  0  0  0
   38.0243  -20.3850  -18.2457 N   0  0  0  0  0  0
   34.7699  -18.9007  -19.8935 O   0  0  0  0  0  0
   40.2498  -21.2680  -16.3241 S   0  0  0  0  0  0
   41.3538  -23.3877  -16.7918 C   0  0  0  0  0  0
   43.8330  -18.5354  -14.1398 N   0  0  0  0  0  0
   41.6443  -22.2127  -13.2322 O   0  0  0  0  0  0
   42.5432  -22.3031  -14.4611 S   0  0  0  0  0  0
   39.6698  -22.1189  -17.7316 C   0  0  0  0  0  0
   45.8256  -17.3204  -14.7584 N   0  0  0  0  0  0
   43.3491  -23.5312  -14.3374 O   0  0  0  0  0  0
   40.4346  -23.2389  -17.7626 C   0  0  0  0  0  0
   38.5778  -21.5823  -18.5836 C   0  0  0  0  0  0
   37.0432  -19.8224  -18.9463 C   0  0  0  0  0  0
   36.5107  -20.4126  -20.0726 C   0  0  0  0  0  0
   37.0303  -21.6100  -20.4508 C   0  0  0  0  0  0
   38.0637  -22.1627  -19.6797 C   0  0  0  0  0  0
   35.4142  -19.7155  -20.7991 C   0  0  2  0  0  0
   36.0502  -18.8138  -21.8366 C   0  0  0  0  0  0
   43.5138  -20.8578  -14.5557 C   0  0  0  0  0  0
   43.0737  -19.6456  -14.0607 C   0  0  0  0  0  0
   45.0552  -18.5087  -14.6932 C   0  0  0  0  0  0
   45.5179  -19.7054  -15.1947 C   0  0  0  0  0  0
   44.7702  -20.8586  -15.1315 C   0  0  0  0  0  0
   34.4559  -20.6305  -21.4669 C   0  0  0  0  0  0
   33.8017  -21.4614  -20.5685 F   0  0  0  0  0  0
   33.4314  -19.8143  -21.9771 F   0  0  0  0  0  0
   34.9465  -21.3110  -22.5495 F   0  0  0  0  0  0
   34.4222  -19.3523  -19.1063 H   0  0  0  0  0  0
   42.0100  -24.3212  -16.7951 H   0  0  0  0  0  0
   46.3304  -16.8841  -13.9819 H   0  0  0  0  0  0
   45.9098  -16.8096  -15.6763 H   0  0  0  0  0  0
   40.3110  -24.0199  -18.5676 H   0  0  0  0  0  0
   36.6644  -18.8606  -18.5962 H   0  0  0  0  0  0
   36.6726  -22.1217  -21.3036 H   0  0  0  0  0  0
   36.8787  -18.2730  -21.2973 H   0  0  0  0  0  0
   35.3495  -18.1067  -22.2805 H   0  0  0  0  0  0
   36.5786  -19.4080  -22.6219 H   0  0  0  0  0  0
   42.0854  -19.6498  -13.6090 H   0  0  0  0  0  0
   46.4976  -19.6961  -15.6414 H   0  0  0  0  0  0
   45.1456  -21.7835  -15.5272 H   0  0  0  0  0  0
  1 18  1  0  0  0
  2  5  1  0  0  0
  2  6  2  0  0  0
  2  9  1  0  0  0
  3 14  2  0  0  0
  3 15  1  0  0  0
  4 19  1  0  0  0
  4 30  1  0  0  0
  5 10  1  0  0  0
  6 13  1  0  0  0
  6 31  1  0  0  0
  7 22  2  0  0  0
  7 23  1  0  0  0
  8  9  2  0  0  0
  9 12  2  0  0  0
  9 21  1  0  0  0
 10 13  2  0  0  0
 10 14  1  0  0  0
 11 23  1  0  0  0
 11 32  1  0  0  0
 11 33  1  0  0  0
 13 34  1  0  0  0
 14 18  1  0  0  0
 15 16  2  0  0  0
 15 35  1  0  0  0
 16 17  1  0  0  0
 16 19  1  0  0  0
 17 18  2  0  0  0
 17 36  1  0  0  0
 19 20  1  0  0  0
 19 26  1  0  0  0
 20 37  1  0  0  0
 20 38  1  0  0  0
 20 39  1  0  0  0
 21 22  1  0  0  0
 21 25  2  0  0  0
 22 40  1  0  0  0
 23 24  2  0  0  0
 24 25  1  0  0  0
 24 41  1  0  0  0
 25 42  1  0  0  0
 26 27  1  0  0  0
 26 28  1  0  0  0
 26 29  1  0  0  0
M  END
$$$$
