accC_ref_0
                    3D
 Schrodinger Suite 2025-3.
 37 40  0  0  1  0            999 V2000
    4.7063  -21.9511   24.5022 C   0  0  0  0  0  0
    5.3867  -22.8343   23.6991 C   0  0  0  0  0  0
    5.2173  -20.6189   24.7395 C   0  0  0  0  0  0
    3.5389  -22.3721   25.1109 C   0  0  0  0  0  0
    6.5446  -22.5498   22.9858 N   0  0  0  0  0  0
    4.8240  -24.0907   23.5766 N   0  0  0  0  0  0
    4.4093  -19.5401   24.4880 C   0  0  0  0  0  0
    6.4499  -20.3281   25.2305 C   0  0  0  0  0  0
    3.0140  -23.6472   24.9549 C   0  0  0  0  0  0
    7.2606  -23.6048   22.2903 C   0  0  0  0  0  0
    7.3936  -21.4581   22.6226 C   0  0  0  0  0  0
    3.7140  -24.4976   24.1536 C   0  0  0  0  0  0
    4.7732  -18.2295   24.7005 C   0  0  0  0  0  0
    6.8873  -19.0495   25.4694 C   0  0  0  0  0  0
    1.8504  -24.0538   25.5667 C   0  0  0  0  0  0
    7.9408  -23.0857   21.1582 C   0  0  0  0  0  0
    8.0457  -21.7924   21.3104 C   0  0  0  0  0  0
    3.2264  -25.7367   23.9872 N   0  0  0  0  0  0
    6.0376  -17.9965   25.2003 C   0  0  0  0  0  0
    1.4286  -25.2935   25.3565 N   0  0  0  0  0  0
    2.0932  -26.1668   24.5695 C   0  0  0  0  0  0
    1.5782  -27.4905   24.3879 N   0  0  0  0  0  0
    2.9526  -21.7148   25.7605 H   0  0  0  0  0  0
    3.3661  -19.7075   24.0771 H   0  0  0  0  0  0
    7.1637  -21.1553   25.4670 H   0  0  0  0  0  0
    6.5939  -24.4758   22.1453 H   0  0  0  0  0  0
    8.0425  -23.9833   23.0181 H   0  0  0  0  0  0
    6.8970  -20.5080   22.4085 H   0  0  0  0  0  0
    8.2662  -21.4190   23.3110 H   0  0  0  0  0  0
    4.0880  -17.4203   24.4813 H   0  0  0  0  0  0
    7.8747  -18.8490   25.8607 H   0  0  0  0  0  0
    1.3293  -23.3201   26.2031 H   0  0  0  0  0  0
    8.2926  -23.6807   20.3395 H   0  0  0  0  0  0
    8.5210  -21.1254   20.5980 H   0  0  0  0  0  0
    6.3583  -16.9708   25.3804 H   0  0  0  0  0  0
    1.2429  -28.0901   25.1760 H   0  0  0  0  0  0
    1.5117  -27.9216   23.4657 H   0  0  0  0  0  0
  1  2  1  0  0  0
  1  3  1  0  0  0
  1  4  2  0  0  0
  2  5  1  0  0  0
  2  6  2  0  0  0
  3  7  2  0  0  0
  3  8  1  0  0  0
  4  9  1  0  0  0
  4 23  1  0  0  0
  5 10  1  0  0  0
  5 11  1  0  0  0
  6 12  1  0  0  0
  7 13  1  0  0  0
  7 24  1  0  0  0
  8 14  2  0  0  0
  8 25  1  0  0  0
  9 12  2  0  0  0
  9 15  1  0  0  0
 10 16  1  0  0  0
 10 26  1  0  0  0
 10 27  1  0  0  0
 11 17  1  0  0  0
 11 28  1  0  0  0
 11 29  1  0  0  0
 12 18  1  0  0  0
 13 19  2  0  0  0
 13 30  1  0  0  0
 14 19  1  0  0  0
 14 31  1  0  0  0
 15 20  2  0  0  0
 15 32  1  0  0  0
 16 17  2  0  0  0
 16 33  1  0  0  0
 17 34  1  0  0  0
 18 21  2  0  0  0
 19 35  1  0  0  0
 20 21  1  0  0  0
 21 22  1  0  0  0
 22 36  1  0  0  0
 22 37  1  0  0  0
M  END
$$$$
accC_ref_1
                    3D
 Schrodinger Suite 2025-3.
 35 37  0  0  1  0            999 V2000
    6.8665  -22.6433   25.7362 Cl  0  0  0  0  0  0
    6.6166  -18.4149   22.4049 Cl  0  0  0  0  0  0
    4.2062  -24.1706   24.0910 C   0  0  0  0  0  0
    3.1161  -24.9407   24.6821 C   0  0  0  0  0  0
    4.3616  -22.7901   24.0462 C   0  0  0  0  0  0
    5.3016  -24.6345   23.4582 N   0  0  0  0  0  0
    3.1085  -26.2767   24.6452 N   0  0  0  0  0  0
    2.0516  -24.3409   25.3016 C   0  0  0  0  0  0
    5.5016  -22.4696   23.4127 N   0  0  0  0  0  0
    6.0906  -23.6238   23.0445 C   0  0  0  0  0  0
    2.1183  -27.0200   25.1810 C   0  0  0  0  0  0
    1.0102  -25.0354   25.8680 C   0  0  0  0  0  0
    5.9489  -21.1600   23.1927 C   0  0  0  0  0  0
    7.3578  -23.8585   22.3220 C   0  0  0  0  0  0
    1.0922  -26.3790   25.7800 N   0  0  0  0  0  0
    2.1919  -28.4394   25.0956 N   0  0  0  0  0  0
    6.8031  -20.5119   24.1635 C   0  0  0  0  0  0
    7.2909  -21.0322   25.3337 C   0  0  0  0  0  0
    7.1742  -19.1995   23.8755 C   0  0  0  0  0  0
    8.1024  -20.3293   26.1992 C   0  0  0  0  0  0
    7.9807  -18.4422   24.6952 C   0  0  0  0  0  0
    8.4328  -19.0335   25.8552 C   0  0  0  0  0  0
    3.6077  -22.1350   24.4923 H   0  0  0  0  0  0
    2.0022  -23.2495   25.3632 H   0  0  0  0  0  0
    0.2116  -24.4901   26.3356 H   0  0  0  0  0  0
    5.1179  -20.4181   22.9622 H   0  0  0  0  0  0
    6.5189  -21.1656   22.2078 H   0  0  0  0  0  0
    7.8954  -22.9239   22.1080 H   0  0  0  0  0  0
    7.1835  -24.4308   21.3735 H   0  0  0  0  0  0
    7.9453  -24.5758   22.9390 H   0  0  0  0  0  0
    2.9869  -28.8956   24.6312 H   0  0  0  0  0  0
    1.4320  -29.0313   25.5080 H   0  0  0  0  0  0
    8.4921  -20.7341   27.1268 H   0  0  0  0  0  0
    8.2551  -17.4204   24.4468 H   0  0  0  0  0  0
    9.0759  -18.4215   26.5032 H   0  0  0  0  0  0
  1 18  1  0  0  0
  2 19  1  0  0  0
  3  4  1  0  0  0
  3  5  2  0  0  0
  3  6  1  0  0  0
  4  7  2  0  0  0
  4  8  1  0  0  0
  5  9  1  0  0  0
  5 23  1  0  0  0
  6 10  2  0  0  0
  7 11  1  0  0  0
  8 12  2  0  0  0
  8 24  1  0  0  0
  9 10  1  0  0  0
  9 13  1  0  0  0
 10 14  1  0  0  0
 11 15  2  0  0  0
 11 16  1  0  0  0
 12 15  1  0  0  0
 12 25  1  0  0  0
 13 17  1  0  0  0
 13 26  1  0  0  0
 13 27  1  0  0  0
 14 28  1  0  0  0
 14 29  1  0  0  0
 14 30  1  0  0  0
 16 31  1  0  0  0
 16 32  1  0  0  0
 17 18  2  0  0  0
 17 19  1  0  0  0
 18 20  1  0  0  0
 19 21  2  0  0  0
 20 22  2  0  0  0
 20 33  1  0  0  0
 21 22  1  0  0  0
 21 34  1  0  0  0
 22 35  1  0  0  0
M  END
$$$$
