HDAC8_ref_0
                    3D
 Schrodinger Suite 2025-3.
 35 36  0  0  1  0            999 V2000
   82.7913   36.6897   71.3266 O   0  0  0  0  0  0
   81.7925   35.8526   71.7225 N   0  0  0  0  0  0
   81.6292   34.6791   70.9467 C   0  0  0  0  0  0
   82.3822   34.4910   69.9845 O   0  0  0  0  0  0
   80.5863   33.7109   71.2837 C   0  0  0  0  0  0
   79.7305   33.8674   72.3263 C   0  0  0  0  0  0
   78.7768   32.9248   72.5892 C   0  0  0  0  0  0
   78.6427   31.7798   71.8111 C   0  0  0  0  0  0
   79.5062   31.6134   70.7522 C   0  0  0  0  0  0
   80.4657   32.5877   70.5088 C   0  0  0  0  0  0
   77.6237   30.7498   72.0735 C   0  0  0  0  0  0
   79.3632   30.4540   69.9728 N   0  0  0  0  0  0
   80.2048   30.1339   68.8136 C   0  0  0  0  0  0
   79.8266   28.8444   68.1841 C   0  0  0  0  0  0
   78.8922   28.7278   67.1682 C   0  0  0  0  0  0
   78.6045   27.4977   66.6460 C   0  0  0  0  0  0
   79.2419   26.3701   67.1276 C   0  0  0  0  0  0
   80.1763   26.4350   68.1343 C   0  0  0  0  0  0
   80.4466   27.7074   68.6453 C   0  0  0  0  0  0
   81.2124   36.0989   72.5461 H   0  0  0  0  0  0
   79.7837   34.7399   72.9717 H   0  0  0  0  0  0
   78.0758   33.0089   73.4076 H   0  0  0  0  0  0
   81.1601   32.4358   69.6427 H   0  0  0  0  0  0
   76.9869   30.5026   71.2140 H   0  0  0  0  0  0
   78.0254   29.9009   72.6173 H   0  0  0  0  0  0
   76.8669   31.2317   72.7655 H   0  0  0  0  0  0
   78.6404   29.7385   70.1717 H   0  0  0  0  0  0
   81.2786   30.1537   69.0540 H   0  0  0  0  0  0
   80.0321   30.8953   68.0374 H   0  0  0  0  0  0
   78.4223   29.6345   66.8266 H   0  0  0  0  0  0
   77.8671   27.4581   65.8535 H   0  0  0  0  0  0
   79.0215   25.3963   66.7219 H   0  0  0  0  0  0
   80.7000   25.5910   68.5442 H   0  0  0  0  0  0
   81.1739   27.7991   69.4361 H   0  0  0  0  0  0
   82.6522   36.8021   70.3476 H   0  0  0  0  0  0
  1  2  1  0  0  0
  1 35  1  0  0  0
  2  3  1  0  0  0
  2 20  1  0  0  0
  3  4  2  0  0  0
  3  5  1  0  0  0
  5  6  2  0  0  0
  5 10  1  0  0  0
  6  7  1  0  0  0
  6 21  1  0  0  0
  7  8  2  0  0  0
  7 22  1  0  0  0
  8  9  1  0  0  0
  8 11  1  0  0  0
  9 10  2  0  0  0
  9 12  1  0  0  0
 10 23  1  0  0  0
 11 24  1  0  0  0
 11 25  1  0  0  0
 11 26  1  0  0  0
 12 13  1  0  0  0
 12 27  1  0  0  0
 13 14  1  0  0  0
 13 28  1  0  0  0
 13 29  1  0  0  0
 14 15  2  0  0  0
 14 19  1  0  0  0
 15 16  1  0  0  0
 15 30  1  0  0  0
 16 17  2  0  0  0
 16 31  1  0  0  0
 17 18  1  0  0  0
 17 32  1  0  0  0
 18 19  2  0  0  0
 18 33  1  0  0  0
 19 34  1  0  0  0
M  END
$$$$
HDAC8_ref_1
                    3D
 Schrodinger Suite 2025-3.
 34 36  0  0  1  0            999 V2000
   74.6286   30.5210   72.7581 Cl  0  0  0  0  0  0
   79.7895   27.9325   66.1995 C   0  0  0  0  0  0
   80.2808   27.6579   67.4448 C   0  0  0  0  0  0
   80.1100   28.5810   68.4339 C   0  0  0  0  0  0
   79.4648   29.7792   68.2375 C   0  0  0  0  0  0
   78.9864   30.0167   66.9736 C   0  0  0  0  0  0
   79.1400   29.1010   65.9367 C   0  0  0  0  0  0
   79.3135   30.6849   69.2644 O   0  0  0  0  0  0
   78.1875   30.6375   70.0962 C   0  0  0  0  0  0
   78.1331   31.5859   71.0895 C   0  0  0  0  0  0
   77.0154   31.5219   71.8979 C   0  0  0  0  0  0
   76.0345   30.5681   71.7076 C   0  0  0  0  0  0
   76.1140   29.6265   70.7016 C   0  0  0  0  0  0
   77.2198   29.6745   69.8863 C   0  0  0  0  0  0
   79.1442   32.5708   71.2871 N   0  0  0  0  0  0
   79.3518   33.1061   72.4946 N   0  0  0  0  0  0
   80.2961   33.9584   72.4429 N   0  0  0  0  0  0
   80.7790   34.0375   71.1673 C   0  0  0  0  0  0
   80.0107   33.1359   70.4805 C   0  0  0  0  0  0
   81.8586   34.9100   70.7529 C   0  0  0  0  0  0
   82.4783   35.7474   71.6904 N   0  0  0  0  0  0
   83.5028   36.6098   71.4180 O   0  0  0  0  0  0
   82.2600   34.9428   69.5807 O   0  0  0  0  0  0
   79.9173   27.0627   65.1512 F   0  0  0  0  0  0
   80.7871   26.7019   67.5722 H   0  0  0  0  0  0
   80.4839   28.3947   69.4205 H   0  0  0  0  0  0
   78.4818   30.9505   66.8154 H   0  0  0  0  0  0
   78.7238   29.3887   64.9769 H   0  0  0  0  0  0
   76.9511   32.2724   72.7008 H   0  0  0  0  0  0
   75.3511   28.8742   70.5429 H   0  0  0  0  0  0
   77.2688   28.9300   69.1015 H   0  0  0  0  0  0
   80.1021   32.9231   69.4409 H   0  0  0  0  0  0
   82.1495   35.7357   72.7032 H   0  0  0  0  0  0
   83.4913   37.4008   72.0089 H   0  0  0  0  0  0
  1 12  1  0  0  0
  2  3  2  0  0  0
  2  7  1  0  0  0
  2 24  1  0  0  0
  3  4  1  0  0  0
  3 25  1  0  0  0
  4  5  2  0  0  0
  4 26  1  0  0  0
  5  6  1  0  0  0
  5  8  1  0  0  0
  6  7  2  0  0  0
  6 27  1  0  0  0
  7 28  1  0  0  0
  8  9  1  0  0  0
  9 10  1  0  0  0
  9 14  2  0  0  0
 10 11  2  0  0  0
 10 15  1  0  0  0
 11 12  1  0  0  0
 11 29  1  0  0  0
 12 13  2  0  0  0
 13 14  1  0  0  0
 13 30  1  0  0  0
 14 31  1  0  0  0
 15 16  1  0  0  0
 15 19  1  0  0  0
 16 17  2  0  0  0
 17 18  1  0  0  0
 18 19  2  0  0  0
 18 20  1  0  0  0
 19 32  1  0  0  0
 20 21  1  0  0  0
 20 23  2  0  0  0
 21 22  1  0  0  0
 21 33  1  0  0  0
 22 34  1  0  0  0
M  END
$$$$
