MetRS_ref_0
                    3D
 Schrodinger Suite 2025-3.
 43 44  0  0  1  0            999 V2000
  -44.3889   17.7360   16.3938 C   0  0  0  0  0  0
  -45.5337   17.1839   15.9123 C   0  0  0  0  0  0
  -43.2189   17.0051   16.3540 C   0  0  0  0  0  0
  -45.4822   15.8975   15.3956 C   0  0  0  0  0  0
  -43.1676   15.7286   15.8414 C   0  0  0  0  0  0
  -37.9928   15.4062    6.2871 C   0  0  0  0  0  0
  -38.8937   13.2910    6.8547 C   0  0  0  0  0  0
  -40.2927   15.2292    7.0269 C   0  0  0  0  0  0
  -42.6433   12.5729   11.0118 C   0  0  0  0  0  0
  -42.5485   12.3187    9.4998 C   0  0  0  0  0  0
  -44.0092   12.1245   11.4535 C   0  0  0  0  0  0
  -41.1870   12.9513    7.6141 C   0  0  0  0  0  0
  -44.1730   13.5879   13.4322 C   0  0  0  0  0  0
  -37.8284   14.0638    6.4182 C   0  0  0  0  0  0
  -39.2152   15.9724    6.5906 C   0  0  0  0  0  0
  -40.1313   13.8714    7.1610 C   0  0  0  0  0  0
  -44.3102   15.1698   15.3575 C   0  0  0  0  0  0
  -41.2519   12.7308    9.0196 N   0  3  0  0  0  0
  -44.2347   12.3068   12.8653 N   0  0  0  0  0  0
  -44.3768   13.8646   14.8066 N   0  0  0  0  0  0
  -43.9238   14.5830   12.7114 O   0  0  0  0  0  0
  -36.2880   13.3158    6.0404 Cl  0  0  0  0  0  0
  -39.3879   17.7026    6.4094 Cl  0  0  0  0  0  0
  -44.4099   18.7304   16.7974 H   0  0  0  0  0  0
  -46.5100   17.6933   15.9044 H   0  0  0  0  0  0
  -42.3301   17.5093   16.7588 H   0  0  0  0  0  0
  -46.3913   15.4517   15.0103 H   0  0  0  0  0  0
  -42.2432   15.1736   15.8190 H   0  0  0  0  0  0
  -37.1724   16.0417    5.9454 H   0  0  0  0  0  0
  -38.7590   12.2034    6.9605 H   0  0  0  0  0  0
  -41.2548   15.6402    7.2705 H   0  0  0  0  0  0
  -42.4022   13.5950   11.2689 H   0  0  0  0  0  0
  -41.9065   11.8662   11.4873 H   0  0  0  0  0  0
  -43.3842   12.7818    8.9630 H   0  0  0  0  0  0
  -42.6942   11.2043    9.3967 H   0  0  0  0  0  0
  -44.7449   12.7236   10.8573 H   0  0  0  0  0  0
  -44.1844   11.0696   11.1382 H   0  0  0  0  0  0
  -42.1591   13.3712    7.2383 H   0  0  0  0  0  0
  -41.0607   11.9677    7.1096 H   0  0  0  0  0  0
  -40.9100   13.5672    9.5500 H   0  0  0  0  0  0
  -40.5916   11.9214    9.2354 H   0  0  0  0  0  0
  -44.4492   11.4697   13.4865 H   0  0  0  0  0  0
  -44.5848   13.0658   15.4355 H   0  0  0  0  0  0
  1  2  2  0  0  0
  1  3  1  0  0  0
  1 24  1  0  0  0
  2  4  1  0  0  0
  2 25  1  0  0  0
  3  5  2  0  0  0
  3 26  1  0  0  0
  4 17  2  0  0  0
  4 27  1  0  0  0
  5 17  1  0  0  0
  5 28  1  0  0  0
  6 14  2  0  0  0
  6 15  1  0  0  0
  6 29  1  0  0  0
  7 14  1  0  0  0
  7 16  2  0  0  0
  7 30  1  0  0  0
  8 15  2  0  0  0
  8 16  1  0  0  0
  8 31  1  0  0  0
  9 10  1  0  0  0
  9 11  1  0  0  0
  9 32  1  0  0  0
  9 33  1  0  0  0
 10 18  1  0  0  0
 10 34  1  0  0  0
 10 35  1  0  0  0
 11 19  1  0  0  0
 11 36  1  0  0  0
 11 37  1  0  0  0
 12 16  1  0  0  0
 12 18  1  0  0  0
 12 38  1  0  0  0
 12 39  1  0  0  0
 13 19  1  0  0  0
 13 20  1  0  0  0
 13 21  2  0  0  0
 14 22  1  0  0  0
 15 23  1  0  0  0
 17 20  1  0  0  0
 18 40  1  0  0  0
 18 41  1  0  0  0
 19 42  1  0  0  0
 20 43  1  0  0  0
M  CHG  1  18   1
M  END
$$$$
MetRS_ref_1
                    3D
 Schrodinger Suite 2025-3.
 44 46  0  0  1  0            999 V2000
  -41.2607   12.3752    8.9117 N   0  3  0  0  0  0
  -41.5225   11.0900   11.2374 C   0  0  0  0  0  0
  -40.7809   17.4328    6.3907 Cl  0  0  0  0  0  0
  -36.2114   14.7264    7.5352 Cl  0  0  0  0  0  0
  -42.5644   12.0657   10.7755 C   0  0  1  0  0  0
  -43.9396   11.8057   12.6756 N   0  0  0  0  0  0
  -42.5911   12.0001    9.2509 C   0  0  0  0  0  0
  -43.5305   13.0825   14.7170 N   0  0  0  0  0  0
  -40.8825   12.4244    7.5566 C   0  0  0  0  0  0
  -42.5776   16.3172   13.9587 N   0  0  0  0  0  0
  -40.0806   13.6378    7.3606 C   0  0  0  0  0  0
  -43.2312   14.1680   12.8963 N   0  0  0  0  0  0
  -40.7289   14.7930    7.0169 C   0  0  0  0  0  0
  -39.9626   15.9571    6.8286 C   0  0  0  0  0  0
  -38.6098   15.9312    6.9852 C   0  0  0  0  0  0
  -37.9511   14.7811    7.3288 C   0  0  0  0  0  0
  -38.7312   13.6333    7.5117 C   0  0  0  0  0  0
  -43.9535   11.7832   11.2397 C   0  0  0  0  0  0
  -43.5825   12.9663   13.3808 C   0  0  0  0  0  0
  -43.1565   14.3244   15.0496 C   0  0  0  0  0  0
  -42.9610   14.9284   16.2565 C   0  0  0  0  0  0
  -42.5711   16.2371   16.2832 C   0  0  0  0  0  0
  -42.3730   16.9535   15.1165 C   0  0  0  0  0  0
  -42.9582   15.0415   13.8961 C   0  0  0  0  0  0
  -40.5945   11.7575    9.4193 H   0  0  0  0  0  0
  -41.1550   13.3230    9.3933 H   0  0  0  0  0  0
  -40.5310   11.5635   11.4419 H   0  0  0  0  0  0
  -41.4281   10.2469   10.4948 H   0  0  0  0  0  0
  -41.7285   10.5962   12.1936 H   0  0  0  0  0  0
  -42.2628   13.1058   11.0200 H   0  0  0  0  0  0
  -44.1963   10.9545   13.1983 H   0  0  0  0  0  0
  -42.9057   10.9931    8.9633 H   0  0  0  0  0  0
  -43.3262   12.7277    8.8687 H   0  0  0  0  0  0
  -43.7579   12.2898   15.3737 H   0  0  0  0  0  0
  -40.2180   11.5585    7.2781 H   0  0  0  0  0  0
  -41.7199   12.3888    6.8429 H   0  0  0  0  0  0
  -41.7944   14.8760    6.8788 H   0  0  0  0  0  0
  -38.0172   16.8428    6.8370 H   0  0  0  0  0  0
  -38.1625   12.7417    7.7847 H   0  0  0  0  0  0
  -44.5987   12.6063   10.8425 H   0  0  0  0  0  0
  -44.3676   10.8571   10.8409 H   0  0  0  0  0  0
  -43.1020   14.4133   17.1990 H   0  0  0  0  0  0
  -42.4168   16.7144   17.2219 H   0  0  0  0  0  0
  -42.0655   17.9864   15.1306 H   0  0  0  0  0  0
  1  7  1  0  0  0
  1  9  1  0  0  0
  1 25  1  0  0  0
  1 26  1  0  0  0
  2  5  1  0  0  0
  2 27  1  0  0  0
  2 28  1  0  0  0
  2 29  1  0  0  0
  3 14  1  0  0  0
  4 16  1  0  0  0
  5  7  1  0  0  0
  5 18  1  0  0  0
  5 30  1  0  0  0
  6 18  1  0  0  0
  6 19  1  0  0  0
  6 31  1  0  0  0
  7 32  1  0  0  0
  7 33  1  0  0  0
  8 19  1  0  0  0
  8 20  1  0  0  0
  8 34  1  0  0  0
  9 11  1  0  0  0
  9 35  1  0  0  0
  9 36  1  0  0  0
 10 23  1  0  0  0
 10 24  2  0  0  0
 11 13  2  0  0  0
 11 17  1  0  0  0
 12 19  2  0  0  0
 12 24  1  0  0  0
 13 14  1  0  0  0
 13 37  1  0  0  0
 14 15  2  0  0  0
 15 16  1  0  0  0
 15 38  1  0  0  0
 16 17  2  0  0  0
 17 39  1  0  0  0
 18 40  1  0  0  0
 18 41  1  0  0  0
 20 21  2  0  0  0
 20 24  1  0  0  0
 21 22  1  0  0  0
 21 42  1  0  0  0
 22 23  2  0  0  0
 22 43  1  0  0  0
 23 44  1  0  0  0
M  CHG  1   1   1
M  END
$$$$
