aroQ_ref_0
                    3D
 Schrodinger Suite 2025-3.
 41 43  0  0  1  0            999 V2000
    4.1560  -31.2168  -53.3471 C   0  0  0  0  0  0
    7.0405  -28.7026  -44.7890 C   0  0  0  0  0  0
    5.3161  -30.7474  -52.5406 C   0  0  0  0  0  0
    5.1725  -29.9632  -51.4401 C   0  0  0  0  0  0
    7.6669  -30.7555  -52.2742 C   0  0  0  0  0  0
    6.3028  -28.7470  -49.5755 C   0  0  0  0  0  0
    7.8682  -27.6559  -47.8479 C   0  0  0  0  0  0
    8.5438  -29.6282  -43.1064 C   0  0  0  0  0  0
    6.0760  -29.9029  -42.9409 C   0  0  0  0  0  0
    8.0490  -28.8081  -45.6254 C   0  0  0  0  0  0
    6.5577  -31.1587  -52.9799 C   0  0  0  0  0  0
    7.4601  -28.4472  -49.0132 C   0  0  0  0  0  0
    6.2740  -29.5228  -50.6824 C   0  0  0  0  0  0
    7.4649  -29.9690  -51.1775 C   0  0  0  0  0  0
    9.5080  -28.7335  -43.8328 C   0  0  2  0  0  0
    9.3888  -29.2271  -45.2660 C   0  0  2  0  0  0
    7.1655  -29.0116  -43.3319 C   0  0  2  0  0  0
    5.1658  -29.4574  -41.9981 O   0  5  0  0  0  0
    5.9792  -31.0508  -43.4596 O   0  0  0  0  0  0
   10.8163  -28.8629  -43.4663 O   0  0  0  0  0  0
   10.4345  -28.7800  -46.0124 O   0  0  0  0  0  0
    7.1228  -27.8120  -42.6759 O   0  0  0  0  0  0
    7.8720  -28.5316  -46.8403 O   0  0  0  0  0  0
    8.6915  -29.3325  -50.1279 S   0  0  0  0  0  0
    4.1313  -30.5920  -54.2573 H   0  0  0  0  0  0
    3.2427  -31.1560  -52.7366 H   0  0  0  0  0  0
    4.2900  -32.2633  -53.6781 H   0  0  0  0  0  0
    6.0576  -28.3818  -45.1233 H   0  0  0  0  0  0
    4.1774  -29.6810  -51.1560 H   0  0  0  0  0  0
    8.6362  -31.0525  -52.5828 H   0  0  0  0  0  0
    5.3721  -28.3385  -49.1033 H   0  0  0  0  0  0
    8.9653  -27.4056  -47.8168 H   0  0  0  0  0  0
    7.2255  -26.7805  -47.7765 H   0  0  0  0  0  0
    8.5286  -30.6597  -43.5219 H   0  0  0  0  0  0
    8.8244  -29.6216  -42.0427 H   0  0  0  0  0  0
    6.6713  -31.7792  -53.8508 H   0  0  0  0  0  0
    9.2116  -27.6719  -43.7470 H   0  0  0  0  0  0
    9.4032  -30.3319  -45.3098 H   0  0  0  0  0  0
   11.3495  -28.3217  -44.1011 H   0  0  0  0  0  0
   11.1994  -29.3825  -45.8387 H   0  0  0  0  0  0
    6.2422  -27.6121  -42.3131 H   0  0  0  0  0  0
  1  3  1  0  0  0
  1 25  1  0  0  0
  1 26  1  0  0  0
  1 27  1  0  0  0
  2 10  2  0  0  0
  2 17  1  0  0  0
  2 28  1  0  0  0
  3  4  2  0  0  0
  3 11  1  0  0  0
  4 13  1  0  0  0
  4 29  1  0  0  0
  5 11  2  0  0  0
  5 14  1  0  0  0
  5 30  1  0  0  0
  6 12  2  0  0  0
  6 13  1  0  0  0
  6 31  1  0  0  0
  7 12  1  0  0  0
  7 23  1  0  0  0
  7 32  1  0  0  0
  7 33  1  0  0  0
  8 15  1  0  0  0
  8 17  1  0  0  0
  8 34  1  0  0  0
  8 35  1  0  0  0
  9 17  1  0  0  0
  9 18  1  0  0  0
  9 19  2  0  0  0
 10 16  1  0  0  0
 10 23  1  0  0  0
 11 36  1  0  0  0
 12 24  1  0  0  0
 13 14  2  0  0  0
 14 24  1  0  0  0
 15 16  1  0  0  0
 15 20  1  0  0  0
 15 37  1  0  0  0
 16 21  1  0  0  0
 16 38  1  0  0  0
 17 22  1  0  0  0
 20 39  1  0  0  0
 21 40  1  0  0  0
 22 41  1  0  0  0
M  CHG  1  18  -1
M  END
$$$$
aroQ_ref_1
                    3D
 Schrodinger Suite 2025-3.
 39 40  0  0  1  0            999 V2000
    7.4595  -29.3932  -52.1055 C   0  0  0  0  0  0
    5.6605  -29.8967  -47.6729 C   0  0  0  0  0  0
    8.0562  -30.1008  -47.9617 C   0  0  0  0  0  0
    5.4871  -29.6703  -49.0100 C   0  0  0  0  0  0
    7.8718  -29.8724  -49.3041 C   0  0  0  0  0  0
    6.9759  -30.3435  -45.6857 C   0  0  0  0  0  0
    8.3922  -29.6469  -43.1736 C   0  0  0  0  0  0
    5.9069  -29.5941  -43.0770 C   0  0  0  0  0  0
    8.3795  -28.3854  -45.6243 C   0  0  0  0  0  0
    6.8944  -30.1029  -47.1732 C   0  0  0  0  0  0
    6.6307  -29.6651  -49.8061 C   0  0  0  0  0  0
    9.5422  -28.7514  -43.5634 C   0  0  2  0  0  0
    9.6583  -28.8550  -45.0694 C   0  0  2  0  0  0
    7.1165  -29.0094  -45.0792 C   0  0  2  0  0  0
    7.1154  -28.9399  -43.5632 C   0  0  2  0  0  0
    5.0224  -28.9029  -42.4629 O   0  0  0  0  0  0
    8.3533  -27.5311  -46.4844 O   0  0  0  0  0  0
    5.5646  -30.9350  -43.1933 O   0  5  0  0  0  0
   10.7076  -29.2152  -42.9598 O   0  0  0  0  0  0
   10.7592  -28.2474  -45.6051 O   0  0  0  0  0  0
    7.0924  -27.6117  -43.1993 O   0  0  0  0  0  0
    6.4279  -29.4336  -51.1566 O   0  0  0  0  0  0
    7.0785  -28.7559  -52.9557 H   0  0  0  0  0  0
    7.6317  -30.4091  -52.5356 H   0  0  0  0  0  0
    8.3906  -28.9542  -51.6906 H   0  0  0  0  0  0
    4.7760  -29.9033  -47.0403 H   0  0  0  0  0  0
    9.0178  -30.2739  -47.5019 H   0  0  0  0  0  0
    4.5115  -29.5075  -49.4034 H   0  0  0  0  0  0
    8.7662  -29.8714  -49.9073 H   0  0  0  0  0  0
    7.8230  -31.0370  -45.6303 H   0  0  0  0  0  0
    6.0887  -30.9231  -45.4319 H   0  0  0  0  0  0
    8.4796  -30.5664  -43.7816 H   0  0  0  0  0  0
    8.4224  -29.9759  -42.1215 H   0  0  0  0  0  0
    9.3746  -27.7114  -43.3379 H   0  0  0  0  0  0
    9.7949  -29.9659  -45.2512 H   0  0  0  0  0  0
    6.2326  -28.3959  -45.4290 H   0  0  0  0  0  0
   10.5048  -29.7563  -42.1518 H   0  0  0  0  0  0
   11.4256  -28.8746  -45.9871 H   0  0  0  0  0  0
    7.4435  -27.0472  -43.9505 H   0  0  0  0  0  0
  1 22  1  0  0  0
  1 23  1  0  0  0
  1 24  1  0  0  0
  1 25  1  0  0  0
  2  4  2  0  0  0
  2 10  1  0  0  0
  2 26  1  0  0  0
  3  5  1  0  0  0
  3 10  2  0  0  0
  3 27  1  0  0  0
  4 11  1  0  0  0
  4 28  1  0  0  0
  5 11  2  0  0  0
  5 29  1  0  0  0
  6 10  1  0  0  0
  6 14  1  0  0  0
  6 30  1  0  0  0
  6 31  1  0  0  0
  7 12  1  0  0  0
  7 15  1  0  0  0
  7 32  1  0  0  0
  7 33  1  0  0  0
  8 15  1  0  0  0
  8 16  2  0  0  0
  8 18  1  0  0  0
  9 13  1  0  0  0
  9 14  1  0  0  0
  9 17  2  0  0  0
 11 22  1  0  0  0
 12 13  1  0  0  0
 12 19  1  0  0  0
 12 34  1  0  0  0
 13 20  1  0  0  0
 13 35  1  0  0  0
 14 15  1  0  0  0
 14 36  1  0  0  0
 15 21  1  0  0  0
 19 37  1  0  0  0
 20 38  1  0  0  0
 21 39  1  0  0  0
M  CHG  1  18  -1
M  END
$$$$
