DPP4_ref_0
                    3D
 Schrodinger Suite 2025-3.
 54 57  0  0  1  0            999 V2000
   16.4965   53.4908   22.5608 N   0  0  0  0  0  0
   13.3350   58.7748   15.2692 C   0  0  0  0  0  0
   11.0190   57.4197   15.3655 O   0  0  0  0  0  0
   13.0407   56.1722   14.8622 O   0  0  0  0  0  0
   12.6391   56.9176   17.3927 C   0  0  0  0  0  0
   11.7630   57.3865   18.3357 C   0  0  0  0  0  0
   11.8962   57.0978   19.6759 C   0  0  0  0  0  0
   12.9415   56.3099   20.1110 C   0  0  0  0  0  0
   13.8325   55.8276   19.1884 C   0  0  0  0  0  0
   14.9530   54.9914   19.5933 C   0  0  0  0  0  0
   15.2286   54.6097   20.8908 C   0  0  0  0  0  0
   16.3116   53.8125   21.2055 C   0  0  0  0  0  0
   17.3990   52.5436   23.1087 C   0  0  0  0  0  0
   18.4082   53.3634   23.8330 C   0  0  0  0  0  0
   17.7525   54.0823   25.0095 C   0  0  2  0  0  0
   18.2400   53.3766   26.2093 C   0  0  0  0  0  0
   17.6525   52.2289   26.6354 C   0  0  0  0  0  0
   18.1633   51.6115   27.7621 C   0  0  0  0  0  0
   19.2359   52.1524   28.4245 C   0  0  0  0  0  0
   19.8251   53.3062   27.9941 C   0  0  0  0  0  0
   19.3347   53.9360   26.8782 C   0  0  0  0  0  0
   16.2761   54.1489   24.9399 C   0  0  1  0  0  0
   15.8737   55.3861   25.6527 N   0  3  0  0  0  0
   15.7133   54.1742   23.5455 C   0  0  0  0  0  0
   17.1025   53.4106   20.2084 N   0  0  0  0  0  0
   16.8836   53.7450   18.9653 C   0  0  0  0  0  0
   15.8353   54.5163   18.6637 N   0  0  0  0  0  0
   13.6793   56.1278   17.8636 C   0  0  0  0  0  0
   17.5464   50.4589   28.1616 F   0  0  0  0  0  0
   19.7305   51.5474   29.5222 F   0  0  0  0  0  0
   19.8781   55.0721   26.4143 F   0  0  0  0  0  0
   12.4625   57.2896   15.6874 S   0  0  0  0  0  0
   13.6163   58.6983   14.2000 H   0  0  0  0  0  0
   14.2258   58.8907   15.8998 H   0  0  0  0  0  0
   12.6063   59.6195   15.4101 H   0  0  0  0  0  0
   10.9487   58.0006   17.9955 H   0  0  0  0  0  0
   11.1914   57.4818   20.3890 H   0  0  0  0  0  0
   13.0029   56.1123   21.1705 H   0  0  0  0  0  0
   14.5288   54.9831   21.6106 H   0  0  0  0  0  0
   17.9342   51.9340   22.3651 H   0  0  0  0  0  0
   16.8625   51.8062   23.7198 H   0  0  0  0  0  0
   19.3231   52.8540   24.1235 H   0  0  0  0  0  0
   18.7097   54.1272   23.0873 H   0  0  0  0  0  0
   18.1606   55.1141   25.0234 H   0  0  0  0  0  0
   16.8267   51.8094   26.1180 H   0  0  0  0  0  0
   20.6635   53.7404   28.5009 H   0  0  0  0  0  0
   15.7491   53.3544   25.4975 H   0  0  0  0  0  0
   16.0171   56.1452   24.9592 H   0  0  0  0  0  0
   16.5290   55.4862   26.4551 H   0  0  0  0  0  0
   14.9102   55.2972   26.0056 H   0  0  0  0  0  0
   14.7016   53.6919   23.5294 H   0  0  0  0  0  0
   15.5449   55.2381   23.3064 H   0  0  0  0  0  0
   17.5695   53.3864   18.1681 H   0  0  0  0  0  0
   14.3809   55.7503   17.1214 H   0  0  0  0  0  0
  1 12  1  0  0  0
  1 13  1  0  0  0
  1 24  1  0  0  0
  2 32  1  0  0  0
  2 33  1  0  0  0
  2 34  1  0  0  0
  2 35  1  0  0  0
  3 32  2  0  0  0
  4 32  2  0  0  0
  5  6  2  0  0  0
  5 28  1  0  0  0
  5 32  1  0  0  0
  6  7  1  0  0  0
  6 36  1  0  0  0
  7  8  2  0  0  0
  7 37  1  0  0  0
  8  9  1  0  0  0
  8 38  1  0  0  0
  9 10  1  0  0  0
  9 28  2  0  0  0
 10 11  2  0  0  0
 10 27  1  0  0  0
 11 12  1  0  0  0
 11 39  1  0  0  0
 12 25  2  0  0  0
 13 14  1  0  0  0
 13 40  1  0  0  0
 13 41  1  0  0  0
 14 15  1  0  0  0
 14 42  1  0  0  0
 14 43  1  0  0  0
 15 16  1  0  0  0
 15 22  1  0  0  0
 15 44  1  0  0  0
 16 17  2  0  0  0
 16 21  1  0  0  0
 17 18  1  0  0  0
 17 45  1  0  0  0
 18 19  2  0  0  0
 18 29  1  0  0  0
 19 20  1  0  0  0
 19 30  1  0  0  0
 20 21  2  0  0  0
 20 46  1  0  0  0
 21 31  1  0  0  0
 22 23  1  0  0  0
 22 24  1  0  0  0
 22 47  1  0  0  0
 23 48  1  0  0  0
 23 49  1  0  0  0
 23 50  1  0  0  0
 24 51  1  0  0  0
 24 52  1  0  0  0
 25 26  1  0  0  0
 26 27  2  0  0  0
 26 53  1  0  0  0
 28 54  1  0  0  0
M  CHG  1  23   1
M  END
$$$$
DPP4_ref_1
                    3D
 Schrodinger Suite 2025-3.
 44 47  0  0  1  0            999 V2000
   19.2941   53.1232   28.2213 C   0  0  0  0  0  0
   18.7423   53.7048   27.0852 C   0  0  0  0  0  0
   17.9574   52.9783   26.1685 C   0  0  0  0  0  0
   17.7228   51.6237   26.4470 C   0  0  0  0  0  0
   18.2759   51.0351   27.5879 C   0  0  0  0  0  0
   19.0581   51.7781   28.4636 C   0  0  0  0  0  0
   17.4229   53.6965   24.9341 C   0  0  1  0  0  0
   17.2649   52.7805   23.7001 C   0  0  0  0  0  0
   16.6515   53.5029   22.5511 C   0  0  0  0  0  0
   15.9221   54.6540   22.7009 N   0  0  0  0  0  0
   15.7317   55.3373   23.9598 C   0  0  0  0  0  0
   16.0831   54.4513   25.1707 C   0  0  2  0  0  0
   16.6653   53.1209   21.2968 N   0  0  0  0  0  0
   15.9263   54.0528   20.6111 C   0  0  0  0  0  0
   15.6133   54.1073   19.2476 C   0  0  0  0  0  0
   14.8412   55.1862   18.7970 C   0  0  0  0  0  0
   14.3790   56.1764   19.6714 C   0  0  0  0  0  0
   14.6836   56.1258   21.0366 C   0  0  0  0  0  0
   16.1474   55.3145   26.4029 N   0  3  0  0  0  0
   14.3886   55.2462   17.0770 S   0  0  0  0  0  0
   14.0795   53.8881   16.6769 O   0  0  0  0  0  0
   13.4148   56.3106   16.9258 O   0  0  0  0  0  0
   15.8823   55.7522   16.2655 C   0  0  0  0  0  0
   15.4565   55.0436   21.4726 C   0  0  0  0  0  0
   18.0293   49.7431   27.8347 F   0  0  0  0  0  0
   18.9038   55.0224   26.8876 F   0  0  0  0  0  0
   19.5703   51.2094   29.5613 F   0  0  0  0  0  0
   19.8967   53.7033   28.9126 H   0  0  0  0  0  0
   17.1294   50.9803   25.8022 H   0  0  0  0  0  0
   18.1806   54.4469   24.6582 H   0  0  0  0  0  0
   16.6135   51.9272   23.9214 H   0  0  0  0  0  0
   18.2405   52.3757   23.4055 H   0  0  0  0  0  0
   14.6859   55.6587   24.0189 H   0  0  0  0  0  0
   16.3694   56.2289   23.9285 H   0  0  0  0  0  0
   15.2739   53.7351   25.3610 H   0  0  0  0  0  0
   15.9507   53.3207   18.5798 H   0  0  0  0  0  0
   13.7608   56.9931   19.2983 H   0  0  0  0  0  0
   14.3153   56.8915   21.7110 H   0  0  0  0  0  0
   16.1620   54.7408   27.2596 H   0  0  0  0  0  0
   15.3390   55.9462   26.4982 H   0  0  0  0  0  0
   17.0043   55.8927   26.4351 H   0  0  0  0  0  0
   15.6764   55.8296   15.1957 H   0  0  0  0  0  0
   16.1868   56.7251   16.6559 H   0  0  0  0  0  0
   16.6573   55.0036   16.4394 H   0  0  0  0  0  0
  1  2  2  0  0  0
  1  6  1  0  0  0
  1 28  1  0  0  0
  2  3  1  0  0  0
  2 26  1  0  0  0
  3  4  2  0  0  0
  3  7  1  0  0  0
  4  5  1  0  0  0
  4 29  1  0  0  0
  5  6  2  0  0  0
  5 25  1  0  0  0
  6 27  1  0  0  0
  7  8  1  0  0  0
  7 12  1  0  0  0
  7 30  1  0  0  0
  8  9  1  0  0  0
  8 31  1  0  0  0
  8 32  1  0  0  0
  9 10  1  0  0  0
  9 13  2  0  0  0
 10 11  1  0  0  0
 10 24  1  0  0  0
 11 12  1  0  0  0
 11 33  1  0  0  0
 11 34  1  0  0  0
 12 19  1  0  0  0
 12 35  1  0  0  0
 13 14  1  0  0  0
 14 15  1  0  0  0
 14 24  2  0  0  0
 15 16  2  0  0  0
 15 36  1  0  0  0
 16 17  1  0  0  0
 16 20  1  0  0  0
 17 18  2  0  0  0
 17 37  1  0  0  0
 18 24  1  0  0  0
 18 38  1  0  0  0
 19 39  1  0  0  0
 19 40  1  0  0  0
 19 41  1  0  0  0
 20 21  2  0  0  0
 20 22  2  0  0  0
 20 23  1  0  0  0
 23 42  1  0  0  0
 23 43  1  0  0  0
 23 44  1  0  0  0
M  CHG  1  19   1
M  END
$$$$
