PIK3CG_ref_0
                    3D
 Schrodinger Suite 2025-3.
 32 34  0  0  1  0            999 V2000
   45.6348   11.6726   27.9255 C   0  0  0  0  0  0
   47.3665   13.2484   28.6463 N   0  0  0  0  0  0
   47.9004   14.2716   29.3575 C   0  0  0  0  0  0
   49.2355   14.7086   29.1993 N   0  0  0  0  0  0
   47.1082   14.9209   30.2741 C   0  0  0  0  0  0
   45.7904   14.4771   30.4126 C   0  0  0  0  0  0
   44.9119   15.0464   31.2905 C   0  0  0  0  0  0
   45.3411   13.4545   29.6668 N   0  0  0  0  0  0
   46.1052   12.8092   28.7654 C   0  0  0  0  0  0
   46.7399   16.5407   31.8980 C   0  0  0  0  0  0
   45.4373   16.1160   32.0471 C   0  0  0  0  0  0
   47.6022   15.9607   31.0168 C   0  0  0  0  0  0
   43.5682   14.6631   31.4952 C   0  0  0  0  0  0
   42.8328   15.3998   32.2826 O   0  0  0  0  0  0
   42.8119   13.5873   30.9975 N   0  0  0  0  0  0
   41.4444   13.3734   31.3345 C   0  0  0  0  0  0
   40.7096   12.3368   30.8098 C   0  0  0  0  0  0
   39.4205   12.4150   31.3582 C   0  0  0  0  0  0
   39.4392   13.4534   32.1547 N   0  0  0  0  0  0
   40.6109   14.0147   32.1462 N   0  0  0  0  0  0
   45.9791   11.7931   26.8754 H   0  0  0  0  0  0
   46.0240   10.6898   28.2674 H   0  0  0  0  0  0
   44.5330   11.6017   27.9878 H   0  0  0  0  0  0
   49.4012   15.6262   28.6909 H   0  0  0  0  0  0
   50.0959   14.2436   29.5208 H   0  0  0  0  0  0
   47.1334   17.3707   32.4884 H   0  0  0  0  0  0
   44.8141   16.6171   32.7568 H   0  0  0  0  0  0
   48.6143   16.3196   30.9259 H   0  0  0  0  0  0
   43.3223   12.9512   30.3658 H   0  0  0  0  0  0
   41.0561   11.5893   30.0980 H   0  0  0  0  0  0
   38.5974   11.7728   31.1700 H   0  0  0  0  0  0
   38.6203   13.7727   32.7125 H   0  0  0  0  0  0
  1  9  1  0  0  0
  1 21  1  0  0  0
  1 22  1  0  0  0
  1 23  1  0  0  0
  2  3  2  0  0  0
  2  9  1  0  0  0
  3  4  1  0  0  0
  3  5  1  0  0  0
  4 24  1  0  0  0
  4 25  1  0  0  0
  5  6  2  0  0  0
  5 12  1  0  0  0
  6  7  1  0  0  0
  6  8  1  0  0  0
  7 11  2  0  0  0
  7 13  1  0  0  0
  8  9  2  0  0  0
 10 11  1  0  0  0
 10 12  2  0  0  0
 10 26  1  0  0  0
 11 27  1  0  0  0
 12 28  1  0  0  0
 13 14  2  0  0  0
 13 15  1  0  0  0
 15 16  1  0  0  0
 15 29  1  0  0  0
 16 17  1  0  0  0
 16 20  2  0  0  0
 17 18  2  0  0  0
 17 30  1  0  0  0
 18 19  1  0  0  0
 18 31  1  0  0  0
 19 20  1  0  0  0
 19 32  1  0  0  0
M  END
$$$$
PIK3CG_ref_1
                    3D
 Schrodinger Suite 2025-3.
 36 39  0  0  1  0            999 V2000
   48.1942   13.8413   29.1612 C   0  0  0  0  0  0
   47.7587   12.7375   28.5590 N   0  0  0  0  0  0
   46.0280   14.0944   30.1873 C   0  0  0  0  0  0
   47.2987   14.4596   29.9450 N   0  0  0  0  0  0
   46.4990   12.2956   28.7432 C   0  0  0  0  0  0
   45.6710   12.9921   29.5553 N   0  0  0  0  0  0
   45.5841   15.9983   31.6923 C   0  0  0  0  0  0
   45.1859   14.8666   31.0574 N   0  0  0  0  0  0
   44.5630   16.4989   32.4424 C   0  0  0  0  0  0
   43.5283   15.6445   32.2506 N   0  0  0  0  0  0
   43.9401   14.6769   31.4129 C   0  0  0  0  0  0
   43.1282   13.6007   30.9785 N   0  0  0  0  0  0
   46.7716   16.7099   31.7245 C   0  0  0  0  0  0
   49.5406   14.3343   28.9788 N   0  0  0  0  0  0
   46.9126   17.8774   32.4851 C   0  0  0  0  0  0
   39.8050   13.7132   32.3660 N   0  0  0  0  0  0
   45.8589   18.3429   33.2234 C   0  0  0  0  0  0
   41.0242   14.1957   32.2247 N   0  0  0  0  0  0
   44.6688   17.6459   33.2025 C   0  0  0  0  0  0
   46.0818   11.0614   28.0419 C   0  0  0  0  0  0
   41.7657   13.4576   31.4148 C   0  0  0  0  0  0
   40.9336   12.4453   31.0319 C   0  0  0  0  0  0
   39.7129   12.6098   31.6280 C   0  0  0  0  0  0
   43.4837   12.8743   30.3296 H   0  0  0  0  0  0
   47.6372   16.3874   31.1600 H   0  0  0  0  0  0
   49.7455   15.1657   28.3869 H   0  0  0  0  0  0
   50.3197   13.8616   29.4384 H   0  0  0  0  0  0
   47.8818   18.3839   32.4592 H   0  0  0  0  0  0
   38.9895   14.0448   32.9199 H   0  0  0  0  0  0
   45.9783   19.2387   33.8025 H   0  0  0  0  0  0
   43.8249   18.0044   33.7838 H   0  0  0  0  0  0
   44.9968   11.1783   27.8210 H   0  0  0  0  0  0
   46.5776   10.9323   27.0595 H   0  0  0  0  0  0
   46.1658   10.1515   28.6886 H   0  0  0  0  0  0
   41.1953   11.6237   30.3524 H   0  0  0  0  0  0
   38.8810   11.9178   31.4697 H   0  0  0  0  0  0
  1  2  2  0  0  0
  1  4  1  0  0  0
  1 14  1  0  0  0
  2  5  1  0  0  0
  3  4  2  0  0  0
  3  6  1  0  0  0
  3  8  1  0  0  0
  5  6  2  0  0  0
  5 20  1  0  0  0
  7  8  1  0  0  0
  7  9  2  0  0  0
  7 13  1  0  0  0
  8 11  1  0  0  0
  9 10  1  0  0  0
  9 19  1  0  0  0
 10 11  2  0  0  0
 11 12  1  0  0  0
 12 21  1  0  0  0
 12 24  1  0  0  0
 13 15  2  0  0  0
 13 25  1  0  0  0
 14 26  1  0  0  0
 14 27  1  0  0  0
 15 17  1  0  0  0
 15 28  1  0  0  0
 16 18  1  0  0  0
 16 23  1  0  0  0
 16 29  1  0  0  0
 17 19  2  0  0  0
 17 30  1  0  0  0
 18 21  2  0  0  0
 19 31  1  0  0  0
 20 32  1  0  0  0
 20 33  1  0  0  0
 20 34  1  0  0  0
 21 22  1  0  0  0
 22 23  2  0  0  0
 22 35  1  0  0  0
 23 36  1  0  0  0
M  END
$$$$
