FPPS_ref_0
                    3D
 Schrodinger Suite 2025-3.
 34 36  0  0  1  0            999 V2000
    3.2467   76.3707   28.2911 C   0  0  0  0  0  0
    2.5603   75.2029   28.6103 C   0  0  0  0  0  0
    2.5145   77.5075   28.0056 C   0  0  0  0  0  0
    4.6359   76.3761   28.2603 C   0  0  0  0  0  0
    3.3443   74.0102   28.9279 C   0  0  0  0  0  0
    1.1830   75.2242   28.6284 C   0  0  0  0  0  0
    1.1144   77.5132   28.0286 C   0  0  0  0  0  0
    3.2303   78.6559   27.6872 C   0  0  0  0  0  0
    5.3081   77.5096   27.9468 C   0  0  0  0  0  0
    3.9432   73.3996   27.8100 O   0  0  0  0  0  0
    0.4479   76.3532   28.3446 C   0  0  0  0  0  0
    4.6072   78.6556   27.6586 C   0  0  0  0  0  0
    4.7068   72.2657   28.0029 C   0  0  0  0  0  0
    5.2658   71.7167   26.8614 C   0  0  0  0  0  0
    4.8929   71.7217   29.2697 C   0  0  0  0  0  0
    6.0398   70.5809   26.9953 C   0  0  0  0  0  0
    5.0335   72.3396   25.5332 C   0  0  0  0  0  0
    5.6823   70.5737   29.3596 C   0  0  0  0  0  0
    6.2491   70.0091   28.2393 C   0  0  0  0  0  0
    5.5704   71.8214   24.3945 O   0  5  0  0  0  0
    4.3201   73.3733   25.4708 O   0  0  0  0  0  0
    5.1361   75.4423   28.4898 H   0  0  0  0  0  0
    4.1443   74.2219   29.6610 H   0  0  0  0  0  0
    2.6232   73.3307   29.4625 H   0  0  0  0  0  0
    0.6372   74.3081   28.8786 H   0  0  0  0  0  0
    0.6598   78.4479   27.7913 H   0  0  0  0  0  0
    2.6598   79.5455   27.4639 H   0  0  0  0  0  0
    6.3799   77.4706   27.9346 H   0  0  0  0  0  0
   -0.6484   76.3698   28.3588 H   0  0  0  0  0  0
    5.0991   79.5722   27.4067 H   0  0  0  0  0  0
    4.4371   72.1831   30.1365 H   0  0  0  0  0  0
    6.4757   70.1525   26.1081 H   0  0  0  0  0  0
    5.8107   70.1762   30.3367 H   0  0  0  0  0  0
    6.8436   69.1240   28.4001 H   0  0  0  0  0  0
  1  2  1  0  0  0
  1  3  1  0  0  0
  1  4  2  0  0  0
  2  5  1  0  0  0
  2  6  2  0  0  0
  3  7  1  0  0  0
  3  8  2  0  0  0
  4  9  1  0  0  0
  4 22  1  0  0  0
  5 10  1  0  0  0
  5 23  1  0  0  0
  5 24  1  0  0  0
  6 11  1  0  0  0
  6 25  1  0  0  0
  7 11  2  0  0  0
  7 26  1  0  0  0
  8 12  1  0  0  0
  8 27  1  0  0  0
  9 12  2  0  0  0
  9 28  1  0  0  0
 10 13  1  0  0  0
 11 29  1  0  0  0
 12 30  1  0  0  0
 13 14  2  0  0  0
 13 15  1  0  0  0
 14 16  1  0  0  0
 14 17  1  0  0  0
 15 18  2  0  0  0
 15 31  1  0  0  0
 16 19  2  0  0  0
 16 32  1  0  0  0
 17 20  1  0  0  0
 17 21  2  0  0  0
 18 19  1  0  0  0
 18 33  1  0  0  0
 19 34  1  0  0  0
M  CHG  1  20  -1
M  END
$$$$
FPPS_ref_1
                    3D
 Schrodinger Suite 2025-3.
 34 37  0  0  1  0            999 V2000
    3.9406   73.1684   27.7429 C   0  0  0  0  0  0
    3.2821   73.9118   28.7051 C   0  0  0  0  0  0
    4.5876   71.9820   28.0592 C   0  0  0  0  0  0
    4.1189   73.3626   26.3880 C   0  0  0  0  0  0
    2.5910   75.1684   28.3910 C   0  0  0  0  0  0
    3.3139   73.3985   29.9801 C   0  0  0  0  0  0
    5.1274   71.4982   26.9238 N   0  0  0  0  0  0
    4.6078   71.4832   29.3474 C   0  0  0  0  0  0
    4.8556   72.3217   25.8908 C   0  0  0  0  0  0
    3.2487   76.3532   28.0962 C   0  0  0  0  0  0
    1.2007   75.2028   28.3809 C   0  0  0  0  0  0
    3.9517   72.2234   30.3077 C   0  0  0  0  0  0
    5.2788   72.1106   24.5349 C   0  0  0  0  0  0
    2.5094   77.4859   27.8128 C   0  0  0  0  0  0
    4.6432   76.3282   28.1039 C   0  0  0  0  0  0
    0.4700   76.3497   28.0940 C   0  0  0  0  0  0
    6.0287   71.0023   24.1650 O   0  5  0  0  0  0
    4.9921   72.9213   23.6061 O   0  0  0  0  0  0
    1.1288   77.5118   27.8049 C   0  0  0  0  0  0
    3.2099   78.6485   27.5235 C   0  0  0  0  0  0
    5.3098   77.5073   27.8105 C   0  0  0  0  0  0
    4.5922   78.6588   27.5224 C   0  0  0  0  0  0
    3.7192   74.2097   25.8766 H   0  0  0  0  0  0
    2.7919   73.9974   30.7166 H   0  0  0  0  0  0
    5.6708   70.6081   26.8950 H   0  0  0  0  0  0
    5.1142   70.5606   29.5770 H   0  0  0  0  0  0
    0.6595   74.2909   28.6076 H   0  0  0  0  0  0
    3.9209   71.8948   31.3588 H   0  0  0  0  0  0
    5.1866   75.4166   28.3321 H   0  0  0  0  0  0
   -0.6345   76.2935   28.1070 H   0  0  0  0  0  0
    0.5816   78.4171   27.5785 H   0  0  0  0  0  0
    2.6113   79.5267   27.3041 H   0  0  0  0  0  0
    6.4002   77.5534   27.7999 H   0  0  0  0  0  0
    5.0603   79.6015   27.2876 H   0  0  0  0  0  0
  1  2  2  0  0  0
  1  3  1  0  0  0
  1  4  1  0  0  0
  2  5  1  0  0  0
  2  6  1  0  0  0
  3  7  1  0  0  0
  3  8  2  0  0  0
  4  9  2  0  0  0
  4 23  1  0  0  0
  5 10  1  0  0  0
  5 11  2  0  0  0
  6 12  2  0  0  0
  6 24  1  0  0  0
  7  9  1  0  0  0
  7 25  1  0  0  0
  8 12  1  0  0  0
  8 26  1  0  0  0
  9 13  1  0  0  0
 10 14  2  0  0  0
 10 15  1  0  0  0
 11 16  1  0  0  0
 11 27  1  0  0  0
 12 28  1  0  0  0
 13 17  1  0  0  0
 13 18  2  0  0  0
 14 19  1  0  0  0
 14 20  1  0  0  0
 15 21  2  0  0  0
 15 29  1  0  0  0
 16 19  2  0  0  0
 16 30  1  0  0  0
 19 31  1  0  0  0
 20 22  2  0  0  0
 20 32  1  0  0  0
 21 22  1  0  0  0
 21 33  1  0  0  0
 22 34  1  0  0  0
M  CHG  1  17  -1
M  END
$$$$
