PDE2A_ref_0
                    3D
 Schrodinger Suite 2025-3.
 50 52  0  0  1  0            999 V2000
    3.3700  -33.3783  -20.6778 C   0  0  0  0  0  0
   -1.6089  -34.2820  -24.3479 N   0  0  0  0  0  0
    2.0928  -33.4205  -28.1219 O   0  0  0  0  0  0
    3.9619  -32.1857  -20.2620 C   0  0  0  0  0  0
   -0.1482  -33.2046  -27.5104 N   0  0  0  0  0  0
    2.3380  -35.5753  -24.1491 O   0  0  0  0  0  0
    1.4004  -32.2169  -21.2577 C   0  0  0  0  0  0
    0.5561  -34.6958  -25.2758 N   0  0  0  0  0  0
   -4.4295  -32.3916  -25.4933 O   0  0  0  0  0  0
   -2.3179  -32.7431  -26.5288 C   0  0  0  0  0  0
    0.8069  -34.4275  -22.8361 N   0  0  0  0  0  0
    3.8322  -29.8499  -19.9455 O   0  0  0  0  0  0
   -2.8016  -33.7214  -24.4103 C   0  0  0  0  0  0
   -0.4166  -35.1417  -20.2181 O   0  0  0  0  0  0
    2.0836  -33.4064  -21.1793 C   0  0  0  0  0  0
   -1.0724  -33.3361  -26.4532 C   0  0  0  0  0  0
    3.2389  -31.0183  -20.3588 C   0  0  0  0  0  0
   -3.2042  -32.9310  -25.4991 C   0  0  0  0  0  0
    1.9437  -31.0231  -20.8604 C   0  0  0  0  0  0
   -0.7290  -34.1066  -25.3497 C   0  0  0  0  0  0
    1.1165  -33.8476  -27.4604 C   0  0  0  0  0  0
    1.2472  -34.9063  -24.0718 C   0  0  0  0  0  0
    1.1903  -35.0621  -26.5653 C   0  0  0  0  0  0
   -5.0055  -31.5849  -26.4676 C   0  0  0  0  0  0
   -1.0124  -36.0538  -19.3606 C   0  0  0  0  0  0
    0.8244  -35.5413  -20.6728 C   0  0  0  0  0  0
    1.5632  -34.6756  -21.5817 C   0  0  1  0  0  0
    3.7238  -29.3681  -18.6173 C   0  0  0  0  0  0
    1.3111  -29.8287  -20.9175 F   0  0  0  0  0  0
    2.3838  -29.1796  -18.3596 F   0  0  0  0  0  0
    4.1888  -30.2414  -17.6548 F   0  0  0  0  0  0
    4.4496  -28.2092  -18.5544 F   0  0  0  0  0  0
    3.9822  -34.2836  -20.5825 H   0  0  0  0  0  0
    4.9694  -32.2020  -19.8747 H   0  0  0  0  0  0
   -0.3807  -32.6204  -28.3627 H   0  0  0  0  0  0
    0.4155  -32.2469  -21.6433 H   0  0  0  0  0  0
   -2.5342  -32.1486  -27.4157 H   0  0  0  0  0  0
   -0.0743  -33.8655  -22.7910 H   0  0  0  0  0  0
   -3.5084  -33.8700  -23.5956 H   0  0  0  0  0  0
    2.2461  -35.2795  -26.4090 H   0  0  0  0  0  0
    0.5971  -35.8572  -27.0509 H   0  0  0  0  0  0
   -5.9381  -32.0431  -26.8921 H   0  0  0  0  0  0
   -4.3664  -31.3847  -27.3413 H   0  0  0  0  0  0
   -5.3201  -30.6220  -25.9824 H   0  0  0  0  0  0
   -1.9837  -35.5981  -19.0833 H   0  0  0  0  0  0
   -1.2275  -37.0220  -19.8063 H   0  0  0  0  0  0
   -0.3366  -36.1039  -18.4620 H   0  0  0  0  0  0
    1.4014  -35.8319  -19.7731 H   0  0  0  0  0  0
    0.6462  -36.4939  -21.2212 H   0  0  0  0  0  0
    2.4219  -35.2862  -21.9269 H   0  0  0  0  0  0
  1  4  2  0  0  0
  1 15  1  0  0  0
  1 33  1  0  0  0
  2 13  2  0  0  0
  2 20  1  0  0  0
  3 21  2  0  0  0
  4 17  1  0  0  0
  4 34  1  0  0  0
  5 16  1  0  0  0
  5 21  1  0  0  0
  5 35  1  0  0  0
  6 22  2  0  0  0
  7 15  2  0  0  0
  7 19  1  0  0  0
  7 36  1  0  0  0
  8 20  1  0  0  0
  8 22  1  0  0  0
  8 23  1  0  0  0
  9 18  1  0  0  0
  9 24  1  0  0  0
 10 16  1  0  0  0
 10 18  2  0  0  0
 10 37  1  0  0  0
 11 22  1  0  0  0
 11 27  1  0  0  0
 11 38  1  0  0  0
 12 17  1  0  0  0
 12 28  1  0  0  0
 13 18  1  0  0  0
 13 39  1  0  0  0
 14 25  1  0  0  0
 14 26  1  0  0  0
 15 27  1  0  0  0
 16 20  2  0  0  0
 17 19  2  0  0  0
 19 29  1  0  0  0
 21 23  1  0  0  0
 23 40  1  0  0  0
 23 41  1  0  0  0
 24 42  1  0  0  0
 24 43  1  0  0  0
 24 44  1  0  0  0
 25 45  1  0  0  0
 25 46  1  0  0  0
 25 47  1  0  0  0
 26 27  1  0  0  0
 26 48  1  0  0  0
 26 49  1  0  0  0
 27 50  1  0  0  0
 28 30  1  0  0  0
 28 31  1  0  0  0
 28 32  1  0  0  0
M  END
$$$$
PDE2A_ref_1
                    3D
 Schrodinger Suite 2025-3.
 44 46  0  0  1  0            999 V2000
    1.7824  -33.3799  -26.3014 C   0  0  0  0  0  0
    1.3126  -33.6111  -24.9926 C   0  0  0  0  0  0
    0.0373  -33.0740  -24.9885 C   0  0  0  0  0  0
   -0.1728  -32.5585  -26.2729 N   0  0  0  0  0  0
    0.8985  -32.7507  -27.0772 N   0  0  0  0  0  0
   -1.3739  -31.9379  -26.5987 C   0  0  0  0  0  0
   -2.3536  -31.8235  -25.6885 C   0  0  0  0  0  0
   -2.0316  -32.4062  -24.3500 C   0  0  0  0  0  0
   -0.9219  -32.9929  -24.0076 N   0  0  0  0  0  0
   -3.6816  -31.1877  -25.8961 C   0  0  0  0  0  0
    2.0251  -34.2639  -23.9124 C   0  0  0  0  0  0
    3.1622  -34.6997  -24.0597 O   0  0  0  0  0  0
    1.3277  -34.3483  -22.7334 N   0  0  0  0  0  0
    1.8866  -34.8993  -21.5160 C   0  0  2  0  0  0
    0.9644  -35.9862  -20.9319 C   0  0  0  0  0  0
    0.9067  -37.2303  -21.8109 C   0  0  0  0  0  0
    2.1656  -33.7603  -20.5472 C   0  0  0  0  0  0
    3.4635  -33.2322  -20.4617 C   0  0  0  0  0  0
    3.7579  -32.1656  -19.6036 C   0  0  0  0  0  0
    2.7540  -31.5984  -18.8211 C   0  0  0  0  0  0
    1.4561  -32.1082  -18.9120 C   0  0  0  0  0  0
    1.1599  -33.1721  -19.7695 C   0  0  0  0  0  0
    2.8928  -30.5603  -17.9457 O   0  0  0  0  0  0
    4.1750  -29.9711  -17.8197 C   0  0  0  0  0  0
    4.5929  -29.4513  -18.9936 F   0  0  0  0  0  0
    5.0823  -30.8649  -17.3713 F   0  0  0  0  0  0
    4.1006  -28.9645  -16.9200 F   0  0  0  0  0  0
    2.7464  -33.6514  -26.7148 H   0  0  0  0  0  0
   -1.4481  -31.5688  -27.6132 H   0  0  0  0  0  0
   -2.8305  -32.3193  -23.5933 H   0  0  0  0  0  0
   -3.8223  -30.3580  -25.1959 H   0  0  0  0  0  0
   -4.4831  -31.9158  -25.7360 H   0  0  0  0  0  0
   -3.7852  -30.7915  -26.9115 H   0  0  0  0  0  0
    0.4073  -33.9165  -22.7029 H   0  0  0  0  0  0
    2.8444  -35.3820  -21.7498 H   0  0  0  0  0  0
    1.3243  -36.2815  -19.9384 H   0  0  0  0  0  0
   -0.0569  -35.6073  -20.8045 H   0  0  0  0  0  0
    1.9043  -37.6583  -21.9515 H   0  0  0  0  0  0
    0.4863  -37.0036  -22.7956 H   0  0  0  0  0  0
    0.2745  -37.9920  -21.3435 H   0  0  0  0  0  0
    4.2610  -33.6477  -21.0772 H   0  0  0  0  0  0
    4.7836  -31.8081  -19.5848 H   0  0  0  0  0  0
    0.6600  -31.6696  -18.3143 H   0  0  0  0  0  0
    0.1334  -33.5253  -19.8246 H   0  0  0  0  0  0
  1  2  1  0  0  0
  1  5  2  0  0  0
  1 28  1  0  0  0
  2  3  2  0  0  0
  2 11  1  0  0  0
  3  4  1  0  0  0
  3  9  1  0  0  0
  4  5  1  0  0  0
  4  6  1  0  0  0
  6  7  2  0  0  0
  6 29  1  0  0  0
  7  8  1  0  0  0
  7 10  1  0  0  0
  8  9  2  0  0  0
  8 30  1  0  0  0
 10 31  1  0  0  0
 10 32  1  0  0  0
 10 33  1  0  0  0
 11 12  2  0  0  0
 11 13  1  0  0  0
 13 14  1  0  0  0
 13 34  1  0  0  0
 14 15  1  0  0  0
 14 17  1  0  0  0
 14 35  1  0  0  0
 15 16  1  0  0  0
 15 36  1  0  0  0
 15 37  1  0  0  0
 16 38  1  0  0  0
 16 39  1  0  0  0
 16 40  1  0  0  0
 17 18  2  0  0  0
 17 22  1  0  0  0
 18 19  1  0  0  0
 18 41  1  0  0  0
 19 20  2  0  0  0
 19 42  1  0  0  0
 20 21  1  0  0  0
 20 23  1  0  0  0
 21 22  2  0  0  0
 21 43  1  0  0  0
 22 44  1  0  0  0
 23 24  1  0  0  0
 24 25  1  0  0  0
 24 26  1  0  0  0
 24 27  1  0  0  0
M  END
$$$$
