BACE1_ref_0
                    3D
 Schrodinger Suite 2025-3.
 39 41  0  0  1  0            999 V2000
    1.7218   -3.3243  -17.1885 Cl  0  0  0  0  0  0
    4.1311    2.2983  -21.7796 C   0  0  0  0  0  0
    5.3455    2.0905  -20.8796 C   0  0  2  0  0  0
    5.0665    2.5651  -19.5266 N   0  3  0  0  0  0
    5.5812    3.5983  -18.9969 C   0  0  0  0  0  0
    6.5366    4.4416  -19.7181 C   0  0  0  0  0  0
    6.2730    4.1539  -21.1887 C   0  0  0  0  0  0
    6.3908    2.7997  -21.4491 O   0  0  0  0  0  0
    5.2210    3.9343  -17.6860 N   0  0  0  0  0  0
    5.7463    0.6633  -20.9104 C   0  0  0  0  0  0
    6.6557    0.2312  -21.8560 C   0  0  0  0  0  0
    7.0734   -1.0815  -21.9486 C   0  0  0  0  0  0
    6.5826   -2.0155  -21.0802 C   0  0  0  0  0  0
    5.6714   -1.6261  -20.1195 C   0  0  0  0  0  0
    5.2821   -0.3155  -20.0601 C   0  0  0  0  0  0
    5.1432   -2.6349  -19.1864 C   0  0  0  0  0  0
    5.8865   -3.7184  -18.7670 C   0  0  0  0  0  0
    5.3878   -4.6748  -17.8832 C   0  0  0  0  0  0
    4.1074   -4.5522  -17.3988 C   0  0  0  0  0  0
    3.3457   -3.4740  -17.8064 C   0  0  0  0  0  0
    3.8659   -2.5256  -18.6941 C   0  0  0  0  0  0
    3.6331    1.2998  -21.9535 H   0  0  0  0  0  0
    3.3515    2.9249  -21.2885 H   0  0  0  0  0  0
    4.4094    2.6681  -22.7661 H   0  0  0  0  0  0
    4.3850    1.9689  -19.0060 H   0  0  0  0  0  0
    6.2853    5.5425  -19.6007 H   0  0  0  0  0  0
    7.5775    4.3520  -19.4527 H   0  0  0  0  0  0
    6.9165    4.7805  -21.7909 H   0  0  0  0  0  0
    5.1853    4.4064  -21.3440 H   0  0  0  0  0  0
    5.3078    3.2904  -16.8603 H   0  0  0  0  0  0
    4.8280    4.8904  -17.4502 H   0  0  0  0  0  0
    7.0779    0.9216  -22.5673 H   0  0  0  0  0  0
    7.7944   -1.4034  -22.7062 H   0  0  0  0  0  0
    6.8691   -3.0575  -21.1001 H   0  0  0  0  0  0
    4.5727   -0.0314  -19.3075 H   0  0  0  0  0  0
    6.8967   -3.8110  -19.1528 H   0  0  0  0  0  0
    5.9698   -5.5248  -17.5530 H   0  0  0  0  0  0
    3.6702   -5.2717  -16.7058 H   0  0  0  0  0  0
    3.2783   -1.6912  -19.0100 H   0  0  0  0  0  0
  1 20  1  0  0  0
  2  3  1  0  0  0
  2 22  1  0  0  0
  2 23  1  0  0  0
  2 24  1  0  0  0
  3  4  1  0  0  0
  3  8  1  0  0  0
  3 10  1  0  0  0
  4  5  2  0  0  0
  4 25  1  0  0  0
  5  6  1  0  0  0
  5  9  1  0  0  0
  6  7  1  0  0  0
  6 26  1  0  0  0
  6 27  1  0  0  0
  7  8  1  0  0  0
  7 28  1  0  0  0
  7 29  1  0  0  0
  9 30  1  0  0  0
  9 31  1  0  0  0
 10 11  2  0  0  0
 10 15  1  0  0  0
 11 12  1  0  0  0
 11 32  1  0  0  0
 12 13  2  0  0  0
 12 33  1  0  0  0
 13 14  1  0  0  0
 13 34  1  0  0  0
 14 15  2  0  0  0
 14 16  1  0  0  0
 15 35  1  0  0  0
 16 17  2  0  0  0
 16 21  1  0  0  0
 17 18  1  0  0  0
 17 36  1  0  0  0
 18 19  2  0  0  0
 18 37  1  0  0  0
 19 20  1  0  0  0
 19 38  1  0  0  0
 20 21  2  0  0  0
 21 39  1  0  0  0
M  CHG  1   4   1
M  END
$$$$
BACE1_ref_1
                    3D
 Schrodinger Suite 2025-3.
 40 42  0  0  1  0            999 V2000
    5.1740   -6.5133  -18.0037 Cl  0  0  0  0  0  0
    5.1006    4.5948  -19.2592 C   0  0  0  0  0  0
    4.6071    3.5212  -19.7597 N   0  3  0  0  0  0
    6.5153   -2.1484  -20.3919 O   0  0  0  0  0  0
    6.3094    5.3433  -20.3241 S   0  0  0  0  0  0
    7.3637    3.9043  -20.8438 C   0  0  0  0  0  0
    4.6809    5.0738  -17.9894 N   0  0  0  0  0  0
    6.5515    2.6938  -21.0262 C   0  0  2  0  0  0
    5.1206   -0.3690  -19.8322 N   0  0  0  0  0  0
    5.0959    3.1234  -21.0454 C   0  0  1  0  0  0
    4.2041    2.0671  -21.5595 C   0  0  0  0  0  0
    5.0305    0.8731  -21.8737 C   0  0  0  0  0  0
    5.9013    0.4550  -20.6999 C   0  0  1  0  0  0
    5.5092   -1.7255  -19.7260 C   0  0  0  0  0  0
    4.8144   -2.6872  -18.8843 C   0  0  0  0  0  0
    5.2900   -3.9741  -18.8681 C   0  0  0  0  0  0
    4.6195   -4.8794  -18.0630 C   0  0  0  0  0  0
    3.5328   -4.4905  -17.3231 C   0  0  0  0  0  0
    3.0767   -3.1913  -17.3585 C   0  0  0  0  0  0
    3.7344   -2.2664  -18.1595 C   0  0  0  0  0  0
    6.6162    1.6130  -20.0309 C   0  0  0  0  0  0
    3.8919    2.9995  -19.2245 H   0  0  0  0  0  0
    7.7793    4.2640  -21.8105 H   0  0  0  0  0  0
    8.2026    3.7809  -20.1542 H   0  0  0  0  0  0
    3.7069    5.3937  -17.8224 H   0  0  0  0  0  0
    5.3423    5.1110  -17.2103 H   0  0  0  0  0  0
    6.7800    2.2771  -22.0276 H   0  0  0  0  0  0
    4.3216   -0.0324  -19.3034 H   0  0  0  0  0  0
    5.1172    3.9741  -21.7732 H   0  0  0  0  0  0
    3.6552    2.4400  -22.4357 H   0  0  0  0  0  0
    3.4460    1.7648  -20.8003 H   0  0  0  0  0  0
    5.5851    0.8876  -22.8163 H   0  0  0  0  0  0
    4.2798    0.0297  -22.0156 H   0  0  0  0  0  0
    6.7080   -0.1421  -21.1538 H   0  0  0  0  0  0
    6.1606   -4.2914  -19.4590 H   0  0  0  0  0  0
    3.0289   -5.2227  -16.7022 H   0  0  0  0  0  0
    2.2087   -2.8755  -16.7692 H   0  0  0  0  0  0
    3.3251   -1.2750  -18.1379 H   0  0  0  0  0  0
    7.6083    1.2938  -19.7194 H   0  0  0  0  0  0
    6.0545    1.8514  -19.0972 H   0  0  0  0  0  0
  1 17  1  0  0  0
  2  3  2  0  0  0
  2  5  1  0  0  0
  2  7  1  0  0  0
  3 10  1  0  0  0
  3 22  1  0  0  0
  4 14  2  0  0  0
  5  6  1  0  0  0
  6  8  1  0  0  0
  6 23  1  0  0  0
  6 24  1  0  0  0
  7 25  1  0  0  0
  7 26  1  0  0  0
  8 10  1  0  0  0
  8 21  1  0  0  0
  8 27  1  0  0  0
  9 13  1  0  0  0
  9 14  1  0  0  0
  9 28  1  0  0  0
 10 11  1  0  0  0
 10 29  1  0  0  0
 11 12  1  0  0  0
 11 30  1  0  0  0
 11 31  1  0  0  0
 12 13  1  0  0  0
 12 32  1  0  0  0
 12 33  1  0  0  0
 13 21  1  0  0  0
 13 34  1  0  0  0
 14 15  1  0  0  0
 15 16  2  0  0  0
 15 20  1  0  0  0
 16 17  1  0  0  0
 16 35  1  0  0  0
 17 18  2  0  0  0
 18 19  1  0  0  0
 18 36  1  0  0  0
 19 20  2  0  0  0
 19 37  1  0  0  0
 20 38  1  0  0  0
 21 39  1  0  0  0
 21 40  1  0  0  0
M  CHG  1   3   1
M  END
$$$$
